/*---------------------------------------------------------------------------*\
| =========                 |                                                 |
| \\      /  F ield         | OpenFOAM: The Open Source CFD Toolbox           |
|  \\    /   O peration     | Version:  v3.0+                                 |
|   \\  /    A nd           | Web:      www.OpenFOAM.com                      |
|    \\/     M anipulation  |                                                 |
\*---------------------------------------------------------------------------*/
Build  : v3.0+-e941ee6c15e9
Exec   : actuatorDiskExplicitForceSimpleFoam
Date   : Jul 02 2016
Time   : 14:43:14
Host   : "RushLinuxHome"
PID    : 26256
Case   : /home/simon/OpenFOAM/simon-v3.0+/run/GitFOAM/ErikCode/fan
nProcs : 1
sigFpe : Enabling floating point exception trapping (FOAM_SIGFPE).
fileModificationChecking : Monitoring run-time modified files using timeStampMaster
allowSystemOperations : Allowing user-supplied system call operations

// * * * * * * * * * * * * * * * * * * * * * * * * * * * * * * * * * * * * * //
Create time

Create mesh for time = 0

// using new solver syntax:
p
{
    solver          PCG;
    preconditioner  DIC;
    tolerance       1e-06;
    relTol          0.01;
}

// using new solver syntax:
U
{
    solver          PBiCG;
    preconditioner  DILU;
    tolerance       1e-05;
    relTol          0.1;
}

// using new solver syntax:
k
{
    solver          PBiCG;
    preconditioner  DILU;
    tolerance       1e-05;
    relTol          0.1;
}

// using new solver syntax:
epsilon
{
    solver          PBiCG;
    preconditioner  DILU;
    tolerance       1e-05;
    relTol          0.1;
}

// using new solver syntax:
R
{
    solver          PBiCG;
    preconditioner  DILU;
    tolerance       1e-05;
    relTol          0.1;
}

// using new solver syntax:
nuTilda
{
    solver          PBiCG;
    preconditioner  DILU;
    tolerance       1e-05;
    relTol          0.1;
}


SIMPLE: no convergence criteria found. Calculations will run for 1000 steps.

Reading field p

Reading field U

Reading/calculating face flux field phi

Selecting incompressible transport model Newtonian
Selecting turbulence model type RAS
Selecting RAS turbulence model kEpsilon
kEpsilonCoeffs
{
    Cmu             0.09;
    C1              1.44;
    C2              1.92;
    C3              -0.33;
    sigmak          1;
    sigmaEps        1.3;
}

No MRF models present

No finite volume options present


Starting time loop

Time = 1

DILUPBiCG:  Solving for Ux, Initial residual = 1, Final residual = 0.0268235, No Iterations 1
DILUPBiCG:  Solving for Uy, Initial residual = 1, Final residual = 0.0317385, No Iterations 1
DILUPBiCG:  Solving for Uz, Initial residual = 1, Final residual = 0.0317385, No Iterations 1
DICPCG:  Solving for p, Initial residual = 1, Final residual = 0.00975637, No Iterations 210
time step continuity errors : sum local = 0.000348679, global = -7.02617e-06, cumulative = -7.02617e-06
DILUPBiCG:  Solving for epsilon, Initial residual = 1, Final residual = 0.0125152, No Iterations 2
DILUPBiCG:  Solving for k, Initial residual = 1, Final residual = 0.0124229, No Iterations 2
ExecutionTime = 10.31 s  ClockTime = 10 s

Time = 2

DILUPBiCG:  Solving for Ux, Initial residual = 0.905702, Final residual = 0.00826905, No Iterations 2
DILUPBiCG:  Solving for Uy, Initial residual = 0.711858, Final residual = 0.00717364, No Iterations 2
DILUPBiCG:  Solving for Uz, Initial residual = 0.711858, Final residual = 0.00717364, No Iterations 2
DICPCG:  Solving for p, Initial residual = 0.158817, Final residual = 0.00104219, No Iterations 210
time step continuity errors : sum local = 9.44621e-05, global = 1.79584e-06, cumulative = -5.23033e-06
DILUPBiCG:  Solving for epsilon, Initial residual = 0.30934, Final residual = 0.00521356, No Iterations 2
DILUPBiCG:  Solving for k, Initial residual = 0.275274, Final residual = 0.00502284, No Iterations 2
ExecutionTime = 17.43 s  ClockTime = 18 s

Time = 3

DILUPBiCG:  Solving for Ux, Initial residual = 0.589273, Final residual = 0.0055795, No Iterations 2
DILUPBiCG:  Solving for Uy, Initial residual = 0.657039, Final residual = 0.00535111, No Iterations 2
DILUPBiCG:  Solving for Uz, Initial residual = 0.657039, Final residual = 0.00535111, No Iterations 2
DICPCG:  Solving for p, Initial residual = 0.339476, Final residual = 0.00278304, No Iterations 210
time step continuity errors : sum local = 0.000213476, global = 4.0433e-06, cumulative = -1.18703e-06
DILUPBiCG:  Solving for epsilon, Initial residual = 0.288993, Final residual = 0.00248946, No Iterations 2
DILUPBiCG:  Solving for k, Initial residual = 0.233346, Final residual = 0.00185504, No Iterations 2
ExecutionTime = 24.27 s  ClockTime = 24 s

Time = 4

DILUPBiCG:  Solving for Ux, Initial residual = 0.177834, Final residual = 0.0145049, No Iterations 1
DILUPBiCG:  Solving for Uy, Initial residual = 0.349867, Final residual = 0.0036933, No Iterations 2
DILUPBiCG:  Solving for Uz, Initial residual = 0.349867, Final residual = 0.0036933, No Iterations 2
DICPCG:  Solving for p, Initial residual = 0.568459, Final residual = 0.00450484, No Iterations 210
time step continuity errors : sum local = 0.00014661, global = 2.99719e-06, cumulative = 1.81016e-06
DILUPBiCG:  Solving for epsilon, Initial residual = 0.200475, Final residual = 0.00138624, No Iterations 2
DILUPBiCG:  Solving for k, Initial residual = 0.189929, Final residual = 0.00200496, No Iterations 2
ExecutionTime = 31.57 s  ClockTime = 32 s

Time = 5

DILUPBiCG:  Solving for Ux, Initial residual = 0.76448, Final residual = 0.057947, No Iterations 1
DILUPBiCG:  Solving for Uy, Initial residual = 0.0829592, Final residual = 0.00102752, No Iterations 2
DILUPBiCG:  Solving for Uz, Initial residual = 0.0829592, Final residual = 0.00102752, No Iterations 2
DICPCG:  Solving for p, Initial residual = 0.258928, Final residual = 0.0022696, No Iterations 208
time step continuity errors : sum local = 0.000127337, global = -2.83237e-06, cumulative = -1.0222e-06
DILUPBiCG:  Solving for epsilon, Initial residual = 0.220242, Final residual = 0.00289146, No Iterations 2
DILUPBiCG:  Solving for k, Initial residual = 0.207815, Final residual = 0.00260781, No Iterations 2
ExecutionTime = 39.11 s  ClockTime = 39 s

Time = 6

DILUPBiCG:  Solving for Ux, Initial residual = 0.482425, Final residual = 0.0424068, No Iterations 1
DILUPBiCG:  Solving for Uy, Initial residual = 0.243221, Final residual = 0.0222061, No Iterations 1
DILUPBiCG:  Solving for Uz, Initial residual = 0.243221, Final residual = 0.0222061, No Iterations 1
DICPCG:  Solving for p, Initial residual = 0.300008, Final residual = 0.00211355, No Iterations 210
time step continuity errors : sum local = 7.69934e-05, global = -1.37819e-06, cumulative = -2.4004e-06
DILUPBiCG:  Solving for epsilon, Initial residual = 0.215074, Final residual = 0.00158336, No Iterations 2
DILUPBiCG:  Solving for k, Initial residual = 0.204645, Final residual = 0.00145042, No Iterations 2
ExecutionTime = 46.94 s  ClockTime = 47 s

Time = 7

DILUPBiCG:  Solving for Ux, Initial residual = 0.233741, Final residual = 0.0161043, No Iterations 1
DILUPBiCG:  Solving for Uy, Initial residual = 0.312562, Final residual = 0.00268715, No Iterations 2
DILUPBiCG:  Solving for Uz, Initial residual = 0.312562, Final residual = 0.00268715, No Iterations 2
DICPCG:  Solving for p, Initial residual = 0.469663, Final residual = 0.00326287, No Iterations 210
time step continuity errors : sum local = 5.20518e-05, global = -1.06619e-06, cumulative = -3.46659e-06
DILUPBiCG:  Solving for epsilon, Initial residual = 0.220519, Final residual = 0.0212861, No Iterations 1
DILUPBiCG:  Solving for k, Initial residual = 0.209706, Final residual = 0.0194889, No Iterations 1
ExecutionTime = 55.12 s  ClockTime = 55 s

Time = 8

DILUPBiCG:  Solving for Ux, Initial residual = 0.799774, Final residual = 0.0387003, No Iterations 1
DILUPBiCG:  Solving for Uy, Initial residual = 0.149545, Final residual = 0.00140469, No Iterations 2
DILUPBiCG:  Solving for Uz, Initial residual = 0.149545, Final residual = 0.00140469, No Iterations 2
DICPCG:  Solving for p, Initial residual = 0.296436, Final residual = 0.00204438, No Iterations 208
time step continuity errors : sum local = 4.93672e-05, global = 1.01683e-06, cumulative = -2.44976e-06
DILUPBiCG:  Solving for epsilon, Initial residual = 0.23153, Final residual = 0.0200237, No Iterations 1
DILUPBiCG:  Solving for k, Initial residual = 0.219172, Final residual = 0.0175888, No Iterations 1
ExecutionTime = 62.72 s  ClockTime = 63 s

Time = 9

DILUPBiCG:  Solving for Ux, Initial residual = 0.321542, Final residual = 0.0180939, No Iterations 1
DILUPBiCG:  Solving for Uy, Initial residual = 0.176061, Final residual = 0.0171256, No Iterations 1
DILUPBiCG:  Solving for Uz, Initial residual = 0.176061, Final residual = 0.0171256, No Iterations 1
DICPCG:  Solving for p, Initial residual = 0.578793, Final residual = 0.00409972, No Iterations 209
time step continuity errors : sum local = 4.56301e-05, global = 8.56179e-07, cumulative = -1.59358e-06
DILUPBiCG:  Solving for epsilon, Initial residual = 0.23765, Final residual = 0.0142963, No Iterations 1
DILUPBiCG:  Solving for k, Initial residual = 0.224155, Final residual = 0.0126072, No Iterations 1
ExecutionTime = 69.6 s  ClockTime = 70 s

Time = 10

DILUPBiCG:  Solving for Ux, Initial residual = 0.495095, Final residual = 0.025394, No Iterations 1
DILUPBiCG:  Solving for Uy, Initial residual = 0.122112, Final residual = 0.0110082, No Iterations 1
DILUPBiCG:  Solving for Uz, Initial residual = 0.122112, Final residual = 0.0110085, No Iterations 1
DICPCG:  Solving for p, Initial residual = 0.344805, Final residual = 0.00311031, No Iterations 208
time step continuity errors : sum local = 3.77395e-05, global = 1.18158e-06, cumulative = -4.12e-07
DILUPBiCG:  Solving for epsilon, Initial residual = 0.24506, Final residual = 0.0112843, No Iterations 1
DILUPBiCG:  Solving for k, Initial residual = 0.230322, Final residual = 0.00997877, No Iterations 1
ExecutionTime = 76.21 s  ClockTime = 77 s

Time = 11

DILUPBiCG:  Solving for Ux, Initial residual = 0.764913, Final residual = 0.0313382, No Iterations 1
DILUPBiCG:  Solving for Uy, Initial residual = 0.059921, Final residual = 0.00570252, No Iterations 1
DILUPBiCG:  Solving for Uz, Initial residual = 0.0599219, Final residual = 0.00570254, No Iterations 1
DICPCG:  Solving for p, Initial residual = 0.21477, Final residual = 0.00211957, No Iterations 208
time step continuity errors : sum local = 2.66037e-05, global = -5.06829e-07, cumulative = -9.18828e-07
DILUPBiCG:  Solving for epsilon, Initial residual = 0.251244, Final residual = 0.00821022, No Iterations 1
DILUPBiCG:  Solving for k, Initial residual = 0.235621, Final residual = 0.00732479, No Iterations 1
ExecutionTime = 82.85 s  ClockTime = 83 s

Time = 12

DILUPBiCG:  Solving for Ux, Initial residual = 0.260111, Final residual = 0.0123891, No Iterations 1
DILUPBiCG:  Solving for Uy, Initial residual = 0.123542, Final residual = 0.00924482, No Iterations 1
DILUPBiCG:  Solving for Uz, Initial residual = 0.123543, Final residual = 0.00924485, No Iterations 1
DICPCG:  Solving for p, Initial residual = 0.499099, Final residual = 0.00421189, No Iterations 209
time step continuity errors : sum local = 1.91407e-05, global = -3.53887e-07, cumulative = -1.27272e-06
DILUPBiCG:  Solving for epsilon, Initial residual = 0.256367, Final residual = 0.00615266, No Iterations 1
DILUPBiCG:  Solving for k, Initial residual = 0.239787, Final residual = 0.00555267, No Iterations 1
ExecutionTime = 89.61 s  ClockTime = 90 s

Time = 13

DILUPBiCG:  Solving for Ux, Initial residual = 0.567404, Final residual = 0.0222378, No Iterations 1
DILUPBiCG:  Solving for Uy, Initial residual = 0.112111, Final residual = 0.00606013, No Iterations 1
DILUPBiCG:  Solving for Uz, Initial residual = 0.112112, Final residual = 0.00606019, No Iterations 1
DICPCG:  Solving for p, Initial residual = 0.253681, Final residual = 0.00249774, No Iterations 59
time step continuity errors : sum local = 1.53745e-05, global = 1.83653e-06, cumulative = 5.63818e-07
DILUPBiCG:  Solving for epsilon, Initial residual = 0.261719, Final residual = 0.00518783, No Iterations 1
DILUPBiCG:  Solving for k, Initial residual = 0.244301, Final residual = 0.00465245, No Iterations 1
ExecutionTime = 93.05 s  ClockTime = 94 s

Time = 14

DILUPBiCG:  Solving for Ux, Initial residual = 0.594622, Final residual = 0.0198005, No Iterations 1
DILUPBiCG:  Solving for Uy, Initial residual = 0.0627026, Final residual = 0.00363583, No Iterations 1
DILUPBiCG:  Solving for Uz, Initial residual = 0.0627029, Final residual = 0.00363604, No Iterations 1
DICPCG:  Solving for p, Initial residual = 0.278821, Final residual = 0.00204474, No Iterations 208
time step continuity errors : sum local = 1.12991e-05, global = 2.04152e-07, cumulative = 7.6797e-07
DILUPBiCG:  Solving for epsilon, Initial residual = 0.266457, Final residual = 0.00428256, No Iterations 1
DILUPBiCG:  Solving for k, Initial residual = 0.248358, Final residual = 0.00384341, No Iterations 1
ExecutionTime = 99.88 s  ClockTime = 100 s

Time = 15

DILUPBiCG:  Solving for Ux, Initial residual = 0.162047, Final residual = 0.00687142, No Iterations 1
DILUPBiCG:  Solving for Uy, Initial residual = 0.0679684, Final residual = 0.00484559, No Iterations 1
DILUPBiCG:  Solving for Uz, Initial residual = 0.0679689, Final residual = 0.00484585, No Iterations 1
DICPCG:  Solving for p, Initial residual = 0.780862, Final residual = 0.00484961, No Iterations 209
time step continuity errors : sum local = 8.23787e-06, global = 1.53843e-07, cumulative = 9.21812e-07
DILUPBiCG:  Solving for epsilon, Initial residual = 0.270425, Final residual = 0.00350053, No Iterations 1
DILUPBiCG:  Solving for k, Initial residual = 0.251813, Final residual = 0.0031635, No Iterations 1
ExecutionTime = 106.56 s  ClockTime = 107 s

Time = 16

DILUPBiCG:  Solving for Ux, Initial residual = 0.568283, Final residual = 0.0168998, No Iterations 1
DILUPBiCG:  Solving for Uy, Initial residual = 0.0405269, Final residual = 0.00256531, No Iterations 1
DILUPBiCG:  Solving for Uz, Initial residual = 0.0405272, Final residual = 0.00256542, No Iterations 1
DICPCG:  Solving for p, Initial residual = 0.217055, Final residual = 0.00189522, No Iterations 206
time step continuity errors : sum local = 7.33881e-06, global = -8.2525e-08, cumulative = 8.39287e-07
DILUPBiCG:  Solving for epsilon, Initial residual = 0.273571, Final residual = 0.00290141, No Iterations 1
DILUPBiCG:  Solving for k, Initial residual = 0.254739, Final residual = 0.00264175, No Iterations 1
ExecutionTime = 113.26 s  ClockTime = 114 s

Time = 17

DILUPBiCG:  Solving for Ux, Initial residual = 0.435437, Final residual = 0.0127318, No Iterations 1
DILUPBiCG:  Solving for Uy, Initial residual = 0.0373296, Final residual = 0.0024875, No Iterations 1
DILUPBiCG:  Solving for Uz, Initial residual = 0.0373298, Final residual = 0.00248744, No Iterations 1
DICPCG:  Solving for p, Initial residual = 0.257001, Final residual = 0.00192496, No Iterations 208
time step continuity errors : sum local = 5.21847e-06, global = -8.71816e-08, cumulative = 7.52106e-07
DILUPBiCG:  Solving for epsilon, Initial residual = 0.27595, Final residual = 0.0024472, No Iterations 1
DILUPBiCG:  Solving for k, Initial residual = 0.257075, Final residual = 0.00225027, No Iterations 1
ExecutionTime = 119.89 s  ClockTime = 120 s

Time = 18

DILUPBiCG:  Solving for Ux, Initial residual = 0.162893, Final residual = 0.00786015, No Iterations 1
DILUPBiCG:  Solving for Uy, Initial residual = 0.0568834, Final residual = 0.00248572, No Iterations 1
DILUPBiCG:  Solving for Uz, Initial residual = 0.0568837, Final residual = 0.00248581, No Iterations 1
DICPCG:  Solving for p, Initial residual = 0.502237, Final residual = 0.00499263, No Iterations 208
time step continuity errors : sum local = 5.81792e-06, global = -1.23492e-07, cumulative = 6.28614e-07
DILUPBiCG:  Solving for epsilon, Initial residual = 0.277743, Final residual = 0.00215123, No Iterations 1
DILUPBiCG:  Solving for k, Initial residual = 0.258939, Final residual = 0.00198588, No Iterations 1
ExecutionTime = 126.67 s  ClockTime = 127 s

Time = 19

DILUPBiCG:  Solving for Ux, Initial residual = 0.446755, Final residual = 0.0115229, No Iterations 1
DILUPBiCG:  Solving for Uy, Initial residual = 0.0413721, Final residual = 0.00144017, No Iterations 1
DILUPBiCG:  Solving for Uz, Initial residual = 0.0413724, Final residual = 0.00144028, No Iterations 1
DICPCG:  Solving for p, Initial residual = 0.17838, Final residual = 0.0014733, No Iterations 207
time step continuity errors : sum local = 3.03334e-06, global = 1.38545e-08, cumulative = 6.42468e-07
DILUPBiCG:  Solving for epsilon, Initial residual = 0.27897, Final residual = 0.00192966, No Iterations 1
DILUPBiCG:  Solving for k, Initial residual = 0.260342, Final residual = 0.0017872, No Iterations 1
ExecutionTime = 133.27 s  ClockTime = 134 s

Time = 20

DILUPBiCG:  Solving for Ux, Initial residual = 0.229053, Final residual = 0.00632744, No Iterations 1
DILUPBiCG:  Solving for Uy, Initial residual = 0.0293622, Final residual = 0.00116506, No Iterations 1
DILUPBiCG:  Solving for Uz, Initial residual = 0.0293622, Final residual = 0.00116506, No Iterations 1
DICPCG:  Solving for p, Initial residual = 0.365106, Final residual = 0.00240535, No Iterations 208
time step continuity errors : sum local = 2.72995e-06, global = 4.5387e-08, cumulative = 6.87855e-07
DILUPBiCG:  Solving for epsilon, Initial residual = 0.279654, Final residual = 0.00174021, No Iterations 1
DILUPBiCG:  Solving for k, Initial residual = 0.261346, Final residual = 0.00161975, No Iterations 1
ExecutionTime = 139.99 s  ClockTime = 141 s

Time = 21

DILUPBiCG:  Solving for Ux, Initial residual = 0.179125, Final residual = 0.00672743, No Iterations 1
DILUPBiCG:  Solving for Uy, Initial residual = 0.0254094, Final residual = 0.00117156, No Iterations 1
DILUPBiCG:  Solving for Uz, Initial residual = 0.0254095, Final residual = 0.00117157, No Iterations 1
DICPCG:  Solving for p, Initial residual = 0.338202, Final residual = 0.00337696, No Iterations 208
time step continuity errors : sum local = 3.07255e-06, global = 6.98148e-08, cumulative = 7.5767e-07
DILUPBiCG:  Solving for epsilon, Initial residual = 0.279846, Final residual = 0.00158104, No Iterations 1
DILUPBiCG:  Solving for k, Initial residual = 0.261966, Final residual = 0.0014802, No Iterations 1
ExecutionTime = 146.61 s  ClockTime = 147 s

Time = 22

DILUPBiCG:  Solving for Ux, Initial residual = 0.305191, Final residual = 0.00703925, No Iterations 1
DILUPBiCG:  Solving for Uy, Initial residual = 0.0143535, Final residual = 0.000651125, No Iterations 1
DILUPBiCG:  Solving for Uz, Initial residual = 0.0143536, Final residual = 0.000651134, No Iterations 1
DICPCG:  Solving for p, Initial residual = 0.172224, Final residual = 0.00144693, No Iterations 207
time step continuity errors : sum local = 1.64792e-06, global = -1.00518e-08, cumulative = 7.47618e-07
DILUPBiCG:  Solving for epsilon, Initial residual = 0.279541, Final residual = 0.0014504, No Iterations 1
DILUPBiCG:  Solving for k, Initial residual = 0.26218, Final residual = 0.00136347, No Iterations 1
ExecutionTime = 153.32 s  ClockTime = 154 s

Time = 23

DILUPBiCG:  Solving for Ux, Initial residual = 0.138041, Final residual = 0.00381836, No Iterations 1
DILUPBiCG:  Solving for Uy, Initial residual = 0.0235584, Final residual = 0.000918654, No Iterations 1
DILUPBiCG:  Solving for Uz, Initial residual = 0.0235583, Final residual = 0.00091867, No Iterations 1
DICPCG:  Solving for p, Initial residual = 0.423792, Final residual = 0.00261311, No Iterations 208
time step continuity errors : sum local = 1.26128e-06, global = -1.99212e-08, cumulative = 7.27697e-07
DILUPBiCG:  Solving for epsilon, Initial residual = 0.2788, Final residual = 0.00134538, No Iterations 1
DILUPBiCG:  Solving for k, Initial residual = 0.262016, Final residual = 0.0012694, No Iterations 1
ExecutionTime = 159.96 s  ClockTime = 161 s

Time = 24

DILUPBiCG:  Solving for Ux, Initial residual = 0.140337, Final residual = 0.00431798, No Iterations 1
DILUPBiCG:  Solving for Uy, Initial residual = 0.0274411, Final residual = 0.000792029, No Iterations 1
DILUPBiCG:  Solving for Uz, Initial residual = 0.027441, Final residual = 0.000792034, No Iterations 1
DICPCG:  Solving for p, Initial residual = 0.240812, Final residual = 0.00224864, No Iterations 208
time step continuity errors : sum local = 1.32021e-06, global = -3.63798e-08, cumulative = 6.91317e-07
DILUPBiCG:  Solving for epsilon, Initial residual = 0.277666, Final residual = 0.00126032, No Iterations 1
DILUPBiCG:  Solving for k, Initial residual = 0.261562, Final residual = 0.00119416, No Iterations 1
ExecutionTime = 166.79 s  ClockTime = 167 s

Time = 25

DILUPBiCG:  Solving for Ux, Initial residual = 0.159264, Final residual = 0.00374953, No Iterations 1
DILUPBiCG:  Solving for Uy, Initial residual = 0.0188927, Final residual = 0.000519751, No Iterations 1
DILUPBiCG:  Solving for Uz, Initial residual = 0.0188928, Final residual = 0.000519754, No Iterations 1
DICPCG:  Solving for p, Initial residual = 0.192376, Final residual = 0.00149096, No Iterations 207
time step continuity errors : sum local = 8.76898e-07, global = 5.81388e-09, cumulative = 6.97131e-07
DILUPBiCG:  Solving for epsilon, Initial residual = 0.276192, Final residual = 0.00118747, No Iterations 1
DILUPBiCG:  Solving for k, Initial residual = 0.260854, Final residual = 0.00113046, No Iterations 1
ExecutionTime = 173.4 s  ClockTime = 174 s

Time = 26

DILUPBiCG:  Solving for Ux, Initial residual = 0.0509444, Final residual = 0.00156526, No Iterations 1
DILUPBiCG:  Solving for Uy, Initial residual = 0.0149339, Final residual = 0.000424281, No Iterations 1
DILUPBiCG:  Solving for Uz, Initial residual = 0.0149339, Final residual = 0.000424282, No Iterations 1
DICPCG:  Solving for p, Initial residual = 0.711543, Final residual = 0.00465581, No Iterations 208
time step continuity errors : sum local = 7.41314e-07, global = 1.21997e-08, cumulative = 7.09331e-07
DILUPBiCG:  Solving for epsilon, Initial residual = 0.274408, Final residual = 0.0011234, No Iterations 1
DILUPBiCG:  Solving for k, Initial residual = 0.2599, Final residual = 0.00107471, No Iterations 1
ExecutionTime = 180.15 s  ClockTime = 181 s

Time = 27

DILUPBiCG:  Solving for Ux, Initial residual = 0.114381, Final residual = 0.00295166, No Iterations 1
DILUPBiCG:  Solving for Uy, Initial residual = 0.0113375, Final residual = 0.000332916, No Iterations 1
DILUPBiCG:  Solving for Uz, Initial residual = 0.0113376, Final residual = 0.000332914, No Iterations 1
DICPCG:  Solving for p, Initial residual = 0.186959, Final residual = 0.00171974, No Iterations 203
time step continuity errors : sum local = 6.57633e-07, global = -1.1325e-08, cumulative = 6.98006e-07
DILUPBiCG:  Solving for epsilon, Initial residual = 0.272343, Final residual = 0.00106709, No Iterations 1
DILUPBiCG:  Solving for k, Initial residual = 0.258717, Final residual = 0.00102584, No Iterations 1
ExecutionTime = 186.65 s  ClockTime = 187 s

Time = 28

DILUPBiCG:  Solving for Ux, Initial residual = 0.102933, Final residual = 0.00248861, No Iterations 1
DILUPBiCG:  Solving for Uy, Initial residual = 0.0117151, Final residual = 0.000349225, No Iterations 1
DILUPBiCG:  Solving for Uz, Initial residual = 0.0117151, Final residual = 0.000349222, No Iterations 1
DICPCG:  Solving for p, Initial residual = 0.201889, Final residual = 0.00148342, No Iterations 207
time step continuity errors : sum local = 4.60631e-07, global = -3.08932e-09, cumulative = 6.94917e-07
DILUPBiCG:  Solving for epsilon, Initial residual = 0.270021, Final residual = 0.00101761, No Iterations 1
DILUPBiCG:  Solving for k, Initial residual = 0.257302, Final residual = 0.00098269, No Iterations 1
ExecutionTime = 193.45 s  ClockTime = 194 s

Time = 29

DILUPBiCG:  Solving for Ux, Initial residual = 0.0346101, Final residual = 0.00128091, No Iterations 1
DILUPBiCG:  Solving for Uy, Initial residual = 0.0157777, Final residual = 0.000406334, No Iterations 1
DILUPBiCG:  Solving for Uz, Initial residual = 0.0157776, Final residual = 0.000406329, No Iterations 1
DICPCG:  Solving for p, Initial residual = 0.525491, Final residual = 0.00342557, No Iterations 208
time step continuity errors : sum local = 3.6698e-07, global = -6.02242e-09, cumulative = 6.88894e-07
DILUPBiCG:  Solving for epsilon, Initial residual = 0.267449, Final residual = 0.000974514, No Iterations 1
DILUPBiCG:  Solving for k, Initial residual = 0.25568, Final residual = 0.000944538, No Iterations 1
ExecutionTime = 200.07 s  ClockTime = 201 s

Time = 30

DILUPBiCG:  Solving for Ux, Initial residual = 0.0601123, Final residual = 0.00176703, No Iterations 1
DILUPBiCG:  Solving for Uy, Initial residual = 0.0151875, Final residual = 0.000343051, No Iterations 1
DILUPBiCG:  Solving for Uz, Initial residual = 0.0151875, Final residual = 0.000343054, No Iterations 1
DICPCG:  Solving for p, Initial residual = 0.145956, Final residual = 0.00142776, No Iterations 207
time step continuity errors : sum local = 3.31631e-07, global = -5.02386e-09, cumulative = 6.8387e-07
DILUPBiCG:  Solving for epsilon, Initial residual = 0.264663, Final residual = 0.000936367, No Iterations 1
DILUPBiCG:  Solving for k, Initial residual = 0.253894, Final residual = 0.000911144, No Iterations 1
ExecutionTime = 206.58 s  ClockTime = 207 s

Time = 31

DILUPBiCG:  Solving for Ux, Initial residual = 0.0377255, Final residual = 0.00121312, No Iterations 1
DILUPBiCG:  Solving for Uy, Initial residual = 0.0119279, Final residual = 0.000268268, No Iterations 1
DILUPBiCG:  Solving for Uz, Initial residual = 0.0119279, Final residual = 0.00026827, No Iterations 1
DICPCG:  Solving for p, Initial residual = 0.243088, Final residual = 0.00174036, No Iterations 207
time step continuity errors : sum local = 2.64816e-07, global = 2.10709e-09, cumulative = 6.85977e-07
DILUPBiCG:  Solving for epsilon, Initial residual = 0.261704, Final residual = 0.000901883, No Iterations 1
DILUPBiCG:  Solving for k, Initial residual = 0.251968, Final residual = 0.00088151, No Iterations 1
ExecutionTime = 213.07 s  ClockTime = 214 s

Time = 32

DILUPBiCG:  Solving for Ux, Initial residual = 0.034313, Final residual = 0.00158157, No Iterations 1
DILUPBiCG:  Solving for Uy, Initial residual = 0.00963156, Final residual = 0.000216921, No Iterations 1
DILUPBiCG:  Solving for Uz, Initial residual = 0.00963157, Final residual = 0.000216923, No Iterations 1
DICPCG:  Solving for p, Initial residual = 0.297428, Final residual = 0.00214581, No Iterations 208
time step continuity errors : sum local = 2.14026e-07, global = 4.09753e-09, cumulative = 6.90075e-07
DILUPBiCG:  Solving for epsilon, Initial residual = 0.25859, Final residual = 0.000870305, No Iterations 1
DILUPBiCG:  Solving for k, Initial residual = 0.249911, Final residual = 0.000854825, No Iterations 1
ExecutionTime = 219.7 s  ClockTime = 220 s

Time = 33

DILUPBiCG:  Solving for Ux, Initial residual = 0.051357, Final residual = 0.00150271, No Iterations 1
DILUPBiCG:  Solving for Uy, Initial residual = 0.00875774, Final residual = 0.000197566, No Iterations 1
DILUPBiCG:  Solving for Uz, Initial residual = 0.00875776, Final residual = 0.000197565, No Iterations 1
DICPCG:  Solving for p, Initial residual = 0.126657, Final residual = 0.00112584, No Iterations 208
time step continuity errors : sum local = 1.63912e-07, global = 2.70035e-09, cumulative = 6.92775e-07
DILUPBiCG:  Solving for epsilon, Initial residual = 0.25534, Final residual = 0.000841216, No Iterations 1
DILUPBiCG:  Solving for k, Initial residual = 0.247735, Final residual = 0.000830353, No Iterations 1
ExecutionTime = 226.6 s  ClockTime = 227 s

Time = 34

DILUPBiCG:  Solving for Ux, Initial residual = 0.0319649, Final residual = 0.00125139, No Iterations 1
DILUPBiCG:  Solving for Uy, Initial residual = 0.0105726, Final residual = 0.000232901, No Iterations 1
DILUPBiCG:  Solving for Uz, Initial residual = 0.0105726, Final residual = 0.0002329, No Iterations 1
DICPCG:  Solving for p, Initial residual = 0.247525, Final residual = 0.0017625, No Iterations 207
time step continuity errors : sum local = 1.44915e-07, global = -1.19365e-09, cumulative = 6.91582e-07
DILUPBiCG:  Solving for epsilon, Initial residual = 0.251976, Final residual = 0.00081431, No Iterations 1
DILUPBiCG:  Solving for k, Initial residual = 0.245436, Final residual = 0.000807599, No Iterations 1
ExecutionTime = 233.24 s  ClockTime = 234 s

Time = 35

DILUPBiCG:  Solving for Ux, Initial residual = 0.0199229, Final residual = 0.000923078, No Iterations 1
DILUPBiCG:  Solving for Uy, Initial residual = 0.0114886, Final residual = 0.000234616, No Iterations 1
DILUPBiCG:  Solving for Uz, Initial residual = 0.0114886, Final residual = 0.000234615, No Iterations 1
DICPCG:  Solving for p, Initial residual = 0.196675, Final residual = 0.00154504, No Iterations 208
time step continuity errors : sum local = 1.15001e-07, global = -2.09531e-09, cumulative = 6.89486e-07
DILUPBiCG:  Solving for epsilon, Initial residual = 0.248511, Final residual = 0.000789409, No Iterations 1
DILUPBiCG:  Solving for k, Initial residual = 0.243034, Final residual = 0.000786473, No Iterations 1
ExecutionTime = 240.04 s  ClockTime = 241 s

Time = 36

DILUPBiCG:  Solving for Ux, Initial residual = 0.0207833, Final residual = 0.000832417, No Iterations 1
DILUPBiCG:  Solving for Uy, Initial residual = 0.0105768, Final residual = 0.000205651, No Iterations 1
DILUPBiCG:  Solving for Uz, Initial residual = 0.0105768, Final residual = 0.000205651, No Iterations 1
DICPCG:  Solving for p, Initial residual = 0.125005, Final residual = 0.00103933, No Iterations 208
time step continuity errors : sum local = 8.91126e-08, global = -1.46906e-09, cumulative = 6.88017e-07
DILUPBiCG:  Solving for epsilon, Initial residual = 0.244951, Final residual = 0.000766182, No Iterations 1
DILUPBiCG:  Solving for k, Initial residual = 0.240554, Final residual = 0.000766876, No Iterations 1
ExecutionTime = 246.78 s  ClockTime = 247 s

Time = 37

DILUPBiCG:  Solving for Ux, Initial residual = 0.01634, Final residual = 0.0008652, No Iterations 1
DILUPBiCG:  Solving for Uy, Initial residual = 0.00921043, Final residual = 0.000176493, No Iterations 1
DILUPBiCG:  Solving for Uz, Initial residual = 0.00921044, Final residual = 0.000176493, No Iterations 1
DICPCG:  Solving for p, Initial residual = 0.280722, Final residual = 0.00205357, No Iterations 207
time step continuity errors : sum local = 8.47856e-08, global = 1.04046e-09, cumulative = 6.89058e-07
DILUPBiCG:  Solving for epsilon, Initial residual = 0.24132, Final residual = 0.000744428, No Iterations 1
DILUPBiCG:  Solving for k, Initial residual = 0.238005, Final residual = 0.000748555, No Iterations 1
ExecutionTime = 253.28 s  ClockTime = 254 s

Time = 38

DILUPBiCG:  Solving for Ux, Initial residual = 0.0242979, Final residual = 0.00119719, No Iterations 1
DILUPBiCG:  Solving for Uy, Initial residual = 0.00831666, Final residual = 0.0001571, No Iterations 1
DILUPBiCG:  Solving for Uz, Initial residual = 0.00831666, Final residual = 0.0001571, No Iterations 1
DICPCG:  Solving for p, Initial residual = 0.132091, Final residual = 0.00131753, No Iterations 60
time step continuity errors : sum local = 7.77223e-08, global = 5.88349e-09, cumulative = 6.94941e-07
DILUPBiCG:  Solving for epsilon, Initial residual = 0.237635, Final residual = 0.000723976, No Iterations 1
DILUPBiCG:  Solving for k, Initial residual = 0.235396, Final residual = 0.000731363, No Iterations 1
ExecutionTime = 256.75 s  ClockTime = 257 s

Time = 39

DILUPBiCG:  Solving for Ux, Initial residual = 0.0239804, Final residual = 0.00108318, No Iterations 1
DILUPBiCG:  Solving for Uy, Initial residual = 0.00864134, Final residual = 0.000162084, No Iterations 1
DILUPBiCG:  Solving for Uz, Initial residual = 0.00864134, Final residual = 0.000162084, No Iterations 1
DICPCG:  Solving for p, Initial residual = 0.110248, Final residual = 0.000880709, No Iterations 208
time step continuity errors : sum local = 5.0551e-08, global = 8.21108e-10, cumulative = 6.95762e-07
DILUPBiCG:  Solving for epsilon, Initial residual = 0.23391, Final residual = 0.000704664, No Iterations 1
DILUPBiCG:  Solving for k, Initial residual = 0.232738, Final residual = 0.00071525, No Iterations 1
ExecutionTime = 262.96 s  ClockTime = 264 s

Time = 40

DILUPBiCG:  Solving for Ux, Initial residual = 0.0165443, Final residual = 0.000941825, No Iterations 1
DILUPBiCG:  Solving for Uy, Initial residual = 0.00932019, Final residual = 0.000169652, No Iterations 1
DILUPBiCG:  Solving for Uz, Initial residual = 0.00932019, Final residual = 0.000169652, No Iterations 1
DICPCG:  Solving for p, Initial residual = 0.214231, Final residual = 0.00165514, No Iterations 207
time step continuity errors : sum local = 4.82311e-08, global = -6.61757e-10, cumulative = 6.95101e-07
DILUPBiCG:  Solving for epsilon, Initial residual = 0.230157, Final residual = 0.000686338, No Iterations 1
DILUPBiCG:  Solving for k, Initial residual = 0.23004, Final residual = 0.000700043, No Iterations 1
ExecutionTime = 269.56 s  ClockTime = 270 s

Time = 41

DILUPBiCG:  Solving for Ux, Initial residual = 0.0143314, Final residual = 0.000757992, No Iterations 1
DILUPBiCG:  Solving for Uy, Initial residual = 0.00933699, Final residual = 0.000163574, No Iterations 1
DILUPBiCG:  Solving for Uz, Initial residual = 0.00933699, Final residual = 0.000163574, No Iterations 1
DICPCG:  Solving for p, Initial residual = 0.100296, Final residual = 0.000934044, No Iterations 203
time step continuity errors : sum local = 3.76048e-08, global = -9.48937e-11, cumulative = 6.95006e-07
DILUPBiCG:  Solving for epsilon, Initial residual = 0.226387, Final residual = 0.000668854, No Iterations 1
DILUPBiCG:  Solving for k, Initial residual = 0.227298, Final residual = 0.000685585, No Iterations 1
ExecutionTime = 275.96 s  ClockTime = 277 s

Time = 42

DILUPBiCG:  Solving for Ux, Initial residual = 0.0134238, Final residual = 0.00071757, No Iterations 1
DILUPBiCG:  Solving for Uy, Initial residual = 0.00877713, Final residual = 0.000149554, No Iterations 1
DILUPBiCG:  Solving for Uz, Initial residual = 0.00877714, Final residual = 0.000149554, No Iterations 1
DICPCG:  Solving for p, Initial residual = 0.115351, Final residual = 0.000977788, No Iterations 207
time step continuity errors : sum local = 3.45273e-08, global = -4.02288e-10, cumulative = 6.94603e-07
DILUPBiCG:  Solving for epsilon, Initial residual = 0.22261, Final residual = 0.000652111, No Iterations 1
DILUPBiCG:  Solving for k, Initial residual = 0.224528, Final residual = 0.000671766, No Iterations 1
ExecutionTime = 282.47 s  ClockTime = 283 s

Time = 43

DILUPBiCG:  Solving for Ux, Initial residual = 0.0149645, Final residual = 0.000867484, No Iterations 1
DILUPBiCG:  Solving for Uy, Initial residual = 0.0081756, Final residual = 0.000136918, No Iterations 1
DILUPBiCG:  Solving for Uz, Initial residual = 0.0081756, Final residual = 0.000136918, No Iterations 1
DICPCG:  Solving for p, Initial residual = 0.143818, Final residual = 0.00114575, No Iterations 207
time step continuity errors : sum local = 2.9354e-08, global = 3.96419e-10, cumulative = 6.95e-07
DILUPBiCG:  Solving for epsilon, Initial residual = 0.218827, Final residual = 0.000636037, No Iterations 1
DILUPBiCG:  Solving for k, Initial residual = 0.221737, Final residual = 0.000658494, No Iterations 1
ExecutionTime = 288.99 s  ClockTime = 290 s

Time = 44

DILUPBiCG:  Solving for Ux, Initial residual = 0.0170896, Final residual = 0.000912934, No Iterations 1
DILUPBiCG:  Solving for Uy, Initial residual = 0.00804605, Final residual = 0.000132664, No Iterations 1
DILUPBiCG:  Solving for Uz, Initial residual = 0.00804605, Final residual = 0.000132664, No Iterations 1
DICPCG:  Solving for p, Initial residual = 0.0724254, Final residual = 0.000592049, No Iterations 208
time step continuity errors : sum local = 2.00139e-08, global = 3.13559e-10, cumulative = 6.95313e-07
DILUPBiCG:  Solving for epsilon, Initial residual = 0.215047, Final residual = 0.000620611, No Iterations 1
DILUPBiCG:  Solving for k, Initial residual = 0.218932, Final residual = 0.00064573, No Iterations 1
ExecutionTime = 295.79 s  ClockTime = 297 s

Time = 45

DILUPBiCG:  Solving for Ux, Initial residual = 0.0157429, Final residual = 0.000852139, No Iterations 1
DILUPBiCG:  Solving for Uy, Initial residual = 0.00830583, Final residual = 0.000134715, No Iterations 1
DILUPBiCG:  Solving for Uz, Initial residual = 0.00830583, Final residual = 0.000134715, No Iterations 1
DICPCG:  Solving for p, Initial residual = 0.0849273, Final residual = 0.00084224, No Iterations 206
time step continuity errors : sum local = 2.41166e-08, global = 8.37975e-11, cumulative = 6.95397e-07
DILUPBiCG:  Solving for epsilon, Initial residual = 0.211282, Final residual = 0.000605821, No Iterations 1
DILUPBiCG:  Solving for k, Initial residual = 0.216119, Final residual = 0.000633424, No Iterations 1
ExecutionTime = 303.35 s  ClockTime = 304 s

Time = 46

DILUPBiCG:  Solving for Ux, Initial residual = 0.0136035, Final residual = 0.000758663, No Iterations 1
DILUPBiCG:  Solving for Uy, Initial residual = 0.00842184, Final residual = 0.000133706, No Iterations 1
DILUPBiCG:  Solving for Uz, Initial residual = 0.00842184, Final residual = 0.000133707, No Iterations 1
DICPCG:  Solving for p, Initial residual = 0.0963404, Final residual = 0.000815661, No Iterations 207
time step continuity errors : sum local = 1.72849e-08, global = -2.91035e-10, cumulative = 6.95106e-07
DILUPBiCG:  Solving for epsilon, Initial residual = 0.207538, Final residual = 0.000591612, No Iterations 1
DILUPBiCG:  Solving for k, Initial residual = 0.213305, Final residual = 0.000621563, No Iterations 1
ExecutionTime = 310.64 s  ClockTime = 311 s

Time = 47

DILUPBiCG:  Solving for Ux, Initial residual = 0.0127052, Final residual = 0.000691999, No Iterations 1
DILUPBiCG:  Solving for Uy, Initial residual = 0.00831501, Final residual = 0.000128505, No Iterations 1
DILUPBiCG:  Solving for Uz, Initial residual = 0.00831501, Final residual = 0.000128505, No Iterations 1
DICPCG:  Solving for p, Initial residual = 0.0643066, Final residual = 0.000608775, No Iterations 207
time step continuity errors : sum local = 1.4733e-08, global = -2.51661e-10, cumulative = 6.94854e-07
DILUPBiCG:  Solving for epsilon, Initial residual = 0.203822, Final residual = 0.00057792, No Iterations 1
DILUPBiCG:  Solving for k, Initial residual = 0.210493, Final residual = 0.000610114, No Iterations 1
ExecutionTime = 318.04 s  ClockTime = 319 s

Time = 48

DILUPBiCG:  Solving for Ux, Initial residual = 0.0129095, Final residual = 0.00070426, No Iterations 1
DILUPBiCG:  Solving for Uy, Initial residual = 0.0080181, Final residual = 0.000121263, No Iterations 1
DILUPBiCG:  Solving for Uz, Initial residual = 0.0080181, Final residual = 0.000121263, No Iterations 1
DICPCG:  Solving for p, Initial residual = 0.0835397, Final residual = 0.000694168, No Iterations 206
time step continuity errors : sum local = 1.4085e-08, global = 2.23897e-11, cumulative = 6.94877e-07
DILUPBiCG:  Solving for epsilon, Initial residual = 0.200137, Final residual = 0.000564683, No Iterations 1
DILUPBiCG:  Solving for k, Initial residual = 0.207686, Final residual = 0.000599056, No Iterations 1
ExecutionTime = 325.38 s  ClockTime = 326 s

Time = 49

DILUPBiCG:  Solving for Ux, Initial residual = 0.0137591, Final residual = 0.000737928, No Iterations 1
DILUPBiCG:  Solving for Uy, Initial residual = 0.00780661, Final residual = 0.000116066, No Iterations 1
DILUPBiCG:  Solving for Uz, Initial residual = 0.00780661, Final residual = 0.000116067, No Iterations 1
DICPCG:  Solving for p, Initial residual = 0.0633552, Final residual = 0.000495693, No Iterations 207
time step continuity errors : sum local = 1.07664e-08, global = 1.95102e-10, cumulative = 6.95072e-07
DILUPBiCG:  Solving for epsilon, Initial residual = 0.19649, Final residual = 0.000551866, No Iterations 1
DILUPBiCG:  Solving for k, Initial residual = 0.204885, Final residual = 0.000588364, No Iterations 1
ExecutionTime = 332.9 s  ClockTime = 334 s

Time = 50

DILUPBiCG:  Solving for Ux, Initial residual = 0.013977, Final residual = 0.000729297, No Iterations 1
DILUPBiCG:  Solving for Uy, Initial residual = 0.00784318, Final residual = 0.000114632, No Iterations 1
DILUPBiCG:  Solving for Uz, Initial residual = 0.00784319, Final residual = 0.000114632, No Iterations 1
DICPCG:  Solving for p, Initial residual = 0.0474647, Final residual = 0.000417636, No Iterations 207
time step continuity errors : sum local = 9.43364e-09, global = 1.65299e-10, cumulative = 6.95237e-07
DILUPBiCG:  Solving for epsilon, Initial residual = 0.192883, Final residual = 0.000539444, No Iterations 1
DILUPBiCG:  Solving for k, Initial residual = 0.202096, Final residual = 0.000578011, No Iterations 1
ExecutionTime = 343.33 s  ClockTime = 344 s

Time = 51

DILUPBiCG:  Solving for Ux, Initial residual = 0.0132516, Final residual = 0.000691372, No Iterations 1
DILUPBiCG:  Solving for Uy, Initial residual = 0.00790648, Final residual = 0.000113513, No Iterations 1
DILUPBiCG:  Solving for Uz, Initial residual = 0.00790648, Final residual = 0.000113513, No Iterations 1
DICPCG:  Solving for p, Initial residual = 0.0544854, Final residual = 0.000388154, No Iterations 206
time step continuity errors : sum local = 7.63607e-09, global = -6.83915e-11, cumulative = 6.95169e-07
DILUPBiCG:  Solving for epsilon, Initial residual = 0.189319, Final residual = 0.000527399, No Iterations 1
DILUPBiCG:  Solving for k, Initial residual = 0.199324, Final residual = 0.000567959, No Iterations 1
ExecutionTime = 350.68 s  ClockTime = 352 s

Time = 52

DILUPBiCG:  Solving for Ux, Initial residual = 0.0125497, Final residual = 0.000649663, No Iterations 1
DILUPBiCG:  Solving for Uy, Initial residual = 0.00788757, Final residual = 0.000111133, No Iterations 1
DILUPBiCG:  Solving for Uz, Initial residual = 0.00788758, Final residual = 0.000111133, No Iterations 1
DICPCG:  Solving for p, Initial residual = 0.051254, Final residual = 0.000379807, No Iterations 207
time step continuity errors : sum local = 6.62784e-09, global = -1.4527e-10, cumulative = 6.95024e-07
DILUPBiCG:  Solving for epsilon, Initial residual = 0.185801, Final residual = 0.000515713, No Iterations 1
DILUPBiCG:  Solving for k, Initial residual = 0.196571, Final residual = 0.00055817, No Iterations 1
ExecutionTime = 358.13 s  ClockTime = 359 s

Time = 53

DILUPBiCG:  Solving for Ux, Initial residual = 0.0123196, Final residual = 0.000628785, No Iterations 1
DILUPBiCG:  Solving for Uy, Initial residual = 0.00778933, Final residual = 0.000107546, No Iterations 1
DILUPBiCG:  Solving for Uz, Initial residual = 0.00778933, Final residual = 0.000107546, No Iterations 1
DICPCG:  Solving for p, Initial residual = 0.0479371, Final residual = 0.00044056, No Iterations 205
time step continuity errors : sum local = 7.62292e-09, global = -8.50562e-11, cumulative = 6.94939e-07
DILUPBiCG:  Solving for epsilon, Initial residual = 0.18233, Final residual = 0.000504371, No Iterations 1
DILUPBiCG:  Solving for k, Initial residual = 0.19384, Final residual = 0.000548623, No Iterations 1
ExecutionTime = 365.3 s  ClockTime = 366 s

Time = 54

DILUPBiCG:  Solving for Ux, Initial residual = 0.0124844, Final residual = 0.00062829, No Iterations 1
DILUPBiCG:  Solving for Uy, Initial residual = 0.00764444, Final residual = 0.000103704, No Iterations 1
DILUPBiCG:  Solving for Uz, Initial residual = 0.00764444, Final residual = 0.000103704, No Iterations 1
DICPCG:  Solving for p, Initial residual = 0.0475344, Final residual = 0.000471129, No Iterations 205
time step continuity errors : sum local = 8.1318e-09, global = 1.40649e-10, cumulative = 6.95079e-07
DILUPBiCG:  Solving for epsilon, Initial residual = 0.17891, Final residual = 0.000493371, No Iterations 1
DILUPBiCG:  Solving for k, Initial residual = 0.191133, Final residual = 0.00053931, No Iterations 1
ExecutionTime = 372.55 s  ClockTime = 374 s

Time = 55

DILUPBiCG:  Solving for Ux, Initial residual = 0.0126678, Final residual = 0.000625582, No Iterations 1
DILUPBiCG:  Solving for Uy, Initial residual = 0.00758971, Final residual = 0.000101226, No Iterations 1
DILUPBiCG:  Solving for Uz, Initial residual = 0.00758971, Final residual = 0.000101226, No Iterations 1
DICPCG:  Solving for p, Initial residual = 0.0371908, Final residual = 0.000370936, No Iterations 156
time step continuity errors : sum local = 6.73638e-09, global = -4.42887e-10, cumulative = 6.94636e-07
DILUPBiCG:  Solving for epsilon, Initial residual = 0.175543, Final residual = 0.000482701, No Iterations 1
DILUPBiCG:  Solving for k, Initial residual = 0.188452, Final residual = 0.000530228, No Iterations 1
ExecutionTime = 378.75 s  ClockTime = 380 s

Time = 56

DILUPBiCG:  Solving for Ux, Initial residual = 0.0125358, Final residual = 0.00061, No Iterations 1
DILUPBiCG:  Solving for Uy, Initial residual = 0.00759708, Final residual = 9.96614e-05, No Iterations 1
DILUPBiCG:  Solving for Uz, Initial residual = 0.00759708, Final residual = 9.96615e-05, No Iterations 1
DICPCG:  Solving for p, Initial residual = 0.0353602, Final residual = 0.000323209, No Iterations 204
time step continuity errors : sum local = 5.73761e-09, global = -2.60918e-11, cumulative = 6.9461e-07
DILUPBiCG:  Solving for epsilon, Initial residual = 0.172231, Final residual = 0.000472339, No Iterations 1
DILUPBiCG:  Solving for k, Initial residual = 0.185799, Final residual = 0.000521372, No Iterations 1
ExecutionTime = 386.01 s  ClockTime = 387 s

Time = 57

DILUPBiCG:  Solving for Ux, Initial residual = 0.0121933, Final residual = 0.000587415, No Iterations 1
DILUPBiCG:  Solving for Uy, Initial residual = 0.00758592, Final residual = 9.79024e-05, No Iterations 1
DILUPBiCG:  Solving for Uz, Initial residual = 0.00758592, Final residual = 9.79025e-05, No Iterations 1
DICPCG:  Solving for p, Initial residual = 0.0364683, Final residual = 0.000322711, No Iterations 205
time step continuity errors : sum local = 5.29943e-09, global = -1.12055e-10, cumulative = 6.94498e-07
DILUPBiCG:  Solving for epsilon, Initial residual = 0.168974, Final residual = 0.000462264, No Iterations 1
DILUPBiCG:  Solving for k, Initial residual = 0.183175, Final residual = 0.00051273, No Iterations 1
ExecutionTime = 393.13 s  ClockTime = 394 s

Time = 58

DILUPBiCG:  Solving for Ux, Initial residual = 0.0119268, Final residual = 0.000567673, No Iterations 1
DILUPBiCG:  Solving for Uy, Initial residual = 0.0075463, Final residual = 9.57144e-05, No Iterations 1
DILUPBiCG:  Solving for Uz, Initial residual = 0.0075463, Final residual = 9.57145e-05, No Iterations 1
DICPCG:  Solving for p, Initial residual = 0.0341456, Final residual = 0.000331314, No Iterations 198
time step continuity errors : sum local = 5.19921e-09, global = 1.94003e-10, cumulative = 6.94692e-07
DILUPBiCG:  Solving for epsilon, Initial residual = 0.165775, Final residual = 0.000452461, No Iterations 1
DILUPBiCG:  Solving for k, Initial residual = 0.180579, Final residual = 0.000504294, No Iterations 1
ExecutionTime = 400.18 s  ClockTime = 401 s

Time = 59

DILUPBiCG:  Solving for Ux, Initial residual = 0.0118463, Final residual = 0.000556033, No Iterations 1
DILUPBiCG:  Solving for Uy, Initial residual = 0.00747651, Final residual = 9.32431e-05, No Iterations 1
DILUPBiCG:  Solving for Uz, Initial residual = 0.00747651, Final residual = 9.32432e-05, No Iterations 1
DICPCG:  Solving for p, Initial residual = 0.0337099, Final residual = 0.000247684, No Iterations 204
time step continuity errors : sum local = 3.8447e-09, global = 3.26435e-11, cumulative = 6.94725e-07
DILUPBiCG:  Solving for epsilon, Initial residual = 0.162633, Final residual = 0.000442925, No Iterations 1
DILUPBiCG:  Solving for k, Initial residual = 0.178014, Final residual = 0.000496067, No Iterations 1
ExecutionTime = 407.12 s  ClockTime = 408 s

Time = 60

DILUPBiCG:  Solving for Ux, Initial residual = 0.0118673, Final residual = 0.000548519, No Iterations 1
DILUPBiCG:  Solving for Uy, Initial residual = 0.00741355, Final residual = 9.09574e-05, No Iterations 1
DILUPBiCG:  Solving for Uz, Initial residual = 0.00741356, Final residual = 9.09575e-05, No Iterations 1
DICPCG:  Solving for p, Initial residual = 0.0311996, Final residual = 0.000219861, No Iterations 205
time step continuity errors : sum local = 3.45341e-09, global = 8.4803e-11, cumulative = 6.9481e-07
DILUPBiCG:  Solving for epsilon, Initial residual = 0.159549, Final residual = 0.000433658, No Iterations 1
DILUPBiCG:  Solving for k, Initial residual = 0.175482, Final residual = 0.000488042, No Iterations 1
ExecutionTime = 414.09 s  ClockTime = 415 s

Time = 61

DILUPBiCG:  Solving for Ux, Initial residual = 0.011834, Final residual = 0.000538681, No Iterations 1
DILUPBiCG:  Solving for Uy, Initial residual = 0.00738963, Final residual = 8.92547e-05, No Iterations 1
DILUPBiCG:  Solving for Uz, Initial residual = 0.00738963, Final residual = 8.92548e-05, No Iterations 1
DICPCG:  Solving for p, Initial residual = 0.0283272, Final residual = 0.000249152, No Iterations 200
time step continuity errors : sum local = 3.92371e-09, global = -1.22109e-10, cumulative = 6.94687e-07
DILUPBiCG:  Solving for epsilon, Initial residual = 0.156523, Final residual = 0.000424651, No Iterations 1
DILUPBiCG:  Solving for k, Initial residual = 0.172983, Final residual = 0.000480208, No Iterations 1
ExecutionTime = 421.33 s  ClockTime = 423 s

Time = 62

DILUPBiCG:  Solving for Ux, Initial residual = 0.0116898, Final residual = 0.000525288, No Iterations 1
DILUPBiCG:  Solving for Uy, Initial residual = 0.00737447, Final residual = 8.77141e-05, No Iterations 1
DILUPBiCG:  Solving for Uz, Initial residual = 0.00737447, Final residual = 8.77141e-05, No Iterations 1
DICPCG:  Solving for p, Initial residual = 0.0282741, Final residual = 0.000242902, No Iterations 203
time step continuity errors : sum local = 3.71371e-09, global = -8.59481e-11, cumulative = 6.94602e-07
DILUPBiCG:  Solving for epsilon, Initial residual = 0.153556, Final residual = 0.000415889, No Iterations 1
DILUPBiCG:  Solving for k, Initial residual = 0.170519, Final residual = 0.00047255, No Iterations 1
ExecutionTime = 428.48 s  ClockTime = 430 s

Time = 63

DILUPBiCG:  Solving for Ux, Initial residual = 0.0115105, Final residual = 0.000511086, No Iterations 1
DILUPBiCG:  Solving for Uy, Initial residual = 0.00734532, Final residual = 8.60805e-05, No Iterations 1
DILUPBiCG:  Solving for Uz, Initial residual = 0.00734532, Final residual = 8.60805e-05, No Iterations 1
DICPCG:  Solving for p, Initial residual = 0.0277179, Final residual = 0.000242324, No Iterations 204
time step continuity errors : sum local = 3.56749e-09, global = -1.17836e-10, cumulative = 6.94484e-07
DILUPBiCG:  Solving for epsilon, Initial residual = 0.150647, Final residual = 0.000407367, No Iterations 1
DILUPBiCG:  Solving for k, Initial residual = 0.168089, Final residual = 0.000465057, No Iterations 1
ExecutionTime = 435.83 s  ClockTime = 437 s

Time = 64

DILUPBiCG:  Solving for Ux, Initial residual = 0.0113834, Final residual = 0.000499016, No Iterations 1
DILUPBiCG:  Solving for Uy, Initial residual = 0.00730929, Final residual = 8.43426e-05, No Iterations 1
DILUPBiCG:  Solving for Uz, Initial residual = 0.00730929, Final residual = 8.43427e-05, No Iterations 1
DICPCG:  Solving for p, Initial residual = 0.0268955, Final residual = 0.000238957, No Iterations 199
time step continuity errors : sum local = 3.44199e-09, global = 1.31693e-10, cumulative = 6.94615e-07
DILUPBiCG:  Solving for epsilon, Initial residual = 0.147795, Final residual = 0.000399081, No Iterations 1
DILUPBiCG:  Solving for k, Initial residual = 0.165694, Final residual = 0.000457725, No Iterations 1
ExecutionTime = 443.04 s  ClockTime = 444 s

Time = 65

DILUPBiCG:  Solving for Ux, Initial residual = 0.0113206, Final residual = 0.000489461, No Iterations 1
DILUPBiCG:  Solving for Uy, Initial residual = 0.00726547, Final residual = 8.25907e-05, No Iterations 1
DILUPBiCG:  Solving for Uz, Initial residual = 0.00726548, Final residual = 8.25907e-05, No Iterations 1
DICPCG:  Solving for p, Initial residual = 0.026239, Final residual = 0.000241563, No Iterations 202
time step continuity errors : sum local = 3.45435e-09, global = 1.07998e-10, cumulative = 6.94723e-07
DILUPBiCG:  Solving for epsilon, Initial residual = 0.145001, Final residual = 0.000391015, No Iterations 1
DILUPBiCG:  Solving for k, Initial residual = 0.163335, Final residual = 0.00045055, No Iterations 1
ExecutionTime = 450.43 s  ClockTime = 452 s

Time = 66

DILUPBiCG:  Solving for Ux, Initial residual = 0.011273, Final residual = 0.000480529, No Iterations 1
DILUPBiCG:  Solving for Uy, Initial residual = 0.00723264, Final residual = 8.10502e-05, No Iterations 1
DILUPBiCG:  Solving for Uz, Initial residual = 0.00723264, Final residual = 8.10502e-05, No Iterations 1
DICPCG:  Solving for p, Initial residual = 0.0248925, Final residual = 0.000237386, No Iterations 24
time step continuity errors : sum local = 3.38674e-09, global = 5.28127e-10, cumulative = 6.95251e-07
DILUPBiCG:  Solving for epsilon, Initial residual = 0.142264, Final residual = 0.000383161, No Iterations 1
DILUPBiCG:  Solving for k, Initial residual = 0.161012, Final residual = 0.000443532, No Iterations 1
ExecutionTime = 453.36 s  ClockTime = 455 s

Time = 67

DILUPBiCG:  Solving for Ux, Initial residual = 0.0111913, Final residual = 0.000470674, No Iterations 1
DILUPBiCG:  Solving for Uy, Initial residual = 0.00721045, Final residual = 7.96328e-05, No Iterations 1
DILUPBiCG:  Solving for Uz, Initial residual = 0.00721046, Final residual = 7.96328e-05, No Iterations 1
DICPCG:  Solving for p, Initial residual = 0.0241196, Final residual = 0.000231973, No Iterations 199
time step continuity errors : sum local = 3.26632e-09, global = -1.28114e-10, cumulative = 6.95123e-07
DILUPBiCG:  Solving for epsilon, Initial residual = 0.139584, Final residual = 0.000375511, No Iterations 1
DILUPBiCG:  Solving for k, Initial residual = 0.158725, Final residual = 0.000436667, No Iterations 1
ExecutionTime = 460.59 s  ClockTime = 462 s

Time = 68

DILUPBiCG:  Solving for Ux, Initial residual = 0.0110832, Final residual = 0.000460316, No Iterations 1
DILUPBiCG:  Solving for Uy, Initial residual = 0.00718657, Final residual = 7.82742e-05, No Iterations 1
DILUPBiCG:  Solving for Uz, Initial residual = 0.00718657, Final residual = 7.82742e-05, No Iterations 1
DICPCG:  Solving for p, Initial residual = 0.0238087, Final residual = 0.000237486, No Iterations 201
time step continuity errors : sum local = 3.27467e-09, global = -1.35505e-10, cumulative = 6.94988e-07
DILUPBiCG:  Solving for epsilon, Initial residual = 0.136961, Final residual = 0.000368057, No Iterations 1
DILUPBiCG:  Solving for k, Initial residual = 0.156473, Final residual = 0.000429956, No Iterations 1
ExecutionTime = 467.83 s  ClockTime = 469 s

Time = 69

DILUPBiCG:  Solving for Ux, Initial residual = 0.0109764, Final residual = 0.000450252, No Iterations 1
DILUPBiCG:  Solving for Uy, Initial residual = 0.00715851, Final residual = 7.69217e-05, No Iterations 1
DILUPBiCG:  Solving for Uz, Initial residual = 0.00715851, Final residual = 7.69218e-05, No Iterations 1
DICPCG:  Solving for p, Initial residual = 0.023253, Final residual = 0.000229849, No Iterations 27
time step continuity errors : sum local = 3.10458e-09, global = -5.21097e-10, cumulative = 6.94467e-07
DILUPBiCG:  Solving for epsilon, Initial residual = 0.134393, Final residual = 0.000360795, No Iterations 1
DILUPBiCG:  Solving for k, Initial residual = 0.154256, Final residual = 0.000423395, No Iterations 1
ExecutionTime = 470.86 s  ClockTime = 472 s

Time = 70

DILUPBiCG:  Solving for Ux, Initial residual = 0.0108946, Final residual = 0.00044119, No Iterations 1
DILUPBiCG:  Solving for Uy, Initial residual = 0.0071287, Final residual = 7.55255e-05, No Iterations 1
DILUPBiCG:  Solving for Uz, Initial residual = 0.0071287, Final residual = 7.55256e-05, No Iterations 1
DICPCG:  Solving for p, Initial residual = 0.022768, Final residual = 0.000221306, No Iterations 33
time step continuity errors : sum local = 2.95001e-09, global = 5.73318e-10, cumulative = 6.9504e-07
DILUPBiCG:  Solving for epsilon, Initial residual = 0.131879, Final residual = 0.000353718, No Iterations 1
DILUPBiCG:  Solving for k, Initial residual = 0.152075, Final residual = 0.00041698, No Iterations 1
ExecutionTime = 474.09 s  ClockTime = 475 s

Time = 71

DILUPBiCG:  Solving for Ux, Initial residual = 0.0108246, Final residual = 0.000432637, No Iterations 1
DILUPBiCG:  Solving for Uy, Initial residual = 0.00709929, Final residual = 7.42184e-05, No Iterations 1
DILUPBiCG:  Solving for Uz, Initial residual = 0.00709929, Final residual = 7.42185e-05, No Iterations 1
DICPCG:  Solving for p, Initial residual = 0.0223094, Final residual = 0.000222873, No Iterations 158
time step continuity errors : sum local = 2.93404e-09, global = 1.84647e-10, cumulative = 6.95225e-07
DILUPBiCG:  Solving for epsilon, Initial residual = 0.12942, Final residual = 0.000346822, No Iterations 1
DILUPBiCG:  Solving for k, Initial residual = 0.14993, Final residual = 0.000410706, No Iterations 1
ExecutionTime = 480.18 s  ClockTime = 482 s

Time = 72

DILUPBiCG:  Solving for Ux, Initial residual = 0.0107596, Final residual = 0.000424472, No Iterations 1
DILUPBiCG:  Solving for Uy, Initial residual = 0.00707509, Final residual = 7.30144e-05, No Iterations 1
DILUPBiCG:  Solving for Uz, Initial residual = 0.00707509, Final residual = 7.30144e-05, No Iterations 1
DICPCG:  Solving for p, Initial residual = 0.0216468, Final residual = 0.000205388, No Iterations 19
time step continuity errors : sum local = 2.68091e-09, global = 1.58406e-10, cumulative = 6.95383e-07
DILUPBiCG:  Solving for epsilon, Initial residual = 0.127014, Final residual = 0.000340101, No Iterations 1
DILUPBiCG:  Solving for k, Initial residual = 0.14782, Final residual = 0.000404571, No Iterations 1
ExecutionTime = 482.98 s  ClockTime = 484 s

Time = 73

DILUPBiCG:  Solving for Ux, Initial residual = 0.0106846, Final residual = 0.000416243, No Iterations 1
DILUPBiCG:  Solving for Uy, Initial residual = 0.00705264, Final residual = 7.18412e-05, No Iterations 1
DILUPBiCG:  Solving for Uz, Initial residual = 0.00705264, Final residual = 7.18413e-05, No Iterations 1
DICPCG:  Solving for p, Initial residual = 0.0211795, Final residual = 0.000210156, No Iterations 92
time step continuity errors : sum local = 2.71069e-09, global = -1.83643e-10, cumulative = 6.952e-07
DILUPBiCG:  Solving for epsilon, Initial residual = 0.124661, Final residual = 0.000333552, No Iterations 1
DILUPBiCG:  Solving for k, Initial residual = 0.145746, Final residual = 0.000398566, No Iterations 1
ExecutionTime = 487.43 s  ClockTime = 489 s

Time = 74

DILUPBiCG:  Solving for Ux, Initial residual = 0.0106019, Final residual = 0.000408001, No Iterations 1
DILUPBiCG:  Solving for Uy, Initial residual = 0.00702916, Final residual = 7.07331e-05, No Iterations 1
DILUPBiCG:  Solving for Uz, Initial residual = 0.00702916, Final residual = 7.07331e-05, No Iterations 1
DICPCG:  Solving for p, Initial residual = 0.0207976, Final residual = 0.000205765, No Iterations 166
time step continuity errors : sum local = 2.62028e-09, global = -1.67083e-10, cumulative = 6.95032e-07
DILUPBiCG:  Solving for epsilon, Initial residual = 0.12236, Final residual = 0.000327171, No Iterations 1
DILUPBiCG:  Solving for k, Initial residual = 0.143706, Final residual = 0.000392687, No Iterations 1
ExecutionTime = 493.8 s  ClockTime = 495 s

Time = 75

DILUPBiCG:  Solving for Ux, Initial residual = 0.0105225, Final residual = 0.000400046, No Iterations 1
DILUPBiCG:  Solving for Uy, Initial residual = 0.00700469, Final residual = 6.96253e-05, No Iterations 1
DILUPBiCG:  Solving for Uz, Initial residual = 0.00700469, Final residual = 6.96254e-05, No Iterations 1
DICPCG:  Solving for p, Initial residual = 0.0204075, Final residual = 0.000200018, No Iterations 115
time step continuity errors : sum local = 2.50549e-09, global = -6.65602e-11, cumulative = 6.94966e-07
DILUPBiCG:  Solving for epsilon, Initial residual = 0.120109, Final residual = 0.000320952, No Iterations 1
DILUPBiCG:  Solving for k, Initial residual = 0.141701, Final residual = 0.000386929, No Iterations 1
ExecutionTime = 498.84 s  ClockTime = 500 s

Time = 76

DILUPBiCG:  Solving for Ux, Initial residual = 0.0104532, Final residual = 0.00039254, No Iterations 1
DILUPBiCG:  Solving for Uy, Initial residual = 0.00698027, Final residual = 6.85383e-05, No Iterations 1
DILUPBiCG:  Solving for Uz, Initial residual = 0.00698027, Final residual = 6.85384e-05, No Iterations 1
DICPCG:  Solving for p, Initial residual = 0.0200924, Final residual = 0.000191249, No Iterations 31
time step continuity errors : sum local = 2.36143e-09, global = -1.18818e-10, cumulative = 6.94847e-07
DILUPBiCG:  Solving for epsilon, Initial residual = 0.117908, Final residual = 0.000314887, No Iterations 1
DILUPBiCG:  Solving for k, Initial residual = 0.13973, Final residual = 0.00038129, No Iterations 1
ExecutionTime = 501.98 s  ClockTime = 503 s

Time = 77

DILUPBiCG:  Solving for Ux, Initial residual = 0.0103898, Final residual = 0.000385366, No Iterations 1
DILUPBiCG:  Solving for Uy, Initial residual = 0.00695777, Final residual = 6.75e-05, No Iterations 1
DILUPBiCG:  Solving for Uz, Initial residual = 0.00695778, Final residual = 6.75001e-05, No Iterations 1
DICPCG:  Solving for p, Initial residual = 0.0196998, Final residual = 0.000196708, No Iterations 12
time step continuity errors : sum local = 2.40173e-09, global = 2.74686e-10, cumulative = 6.95122e-07
DILUPBiCG:  Solving for epsilon, Initial residual = 0.115756, Final residual = 0.000308971, No Iterations 1
DILUPBiCG:  Solving for k, Initial residual = 0.137794, Final residual = 0.000375766, No Iterations 1
ExecutionTime = 504.63 s  ClockTime = 506 s

Time = 78

DILUPBiCG:  Solving for Ux, Initial residual = 0.0103255, Final residual = 0.000378337, No Iterations 1
DILUPBiCG:  Solving for Uy, Initial residual = 0.00693572, Final residual = 6.65016e-05, No Iterations 1
DILUPBiCG:  Solving for Uz, Initial residual = 0.00693572, Final residual = 6.65016e-05, No Iterations 1
DICPCG:  Solving for p, Initial residual = 0.0193096, Final residual = 0.000189928, No Iterations 28
time step continuity errors : sum local = 2.29369e-09, global = 2.91918e-10, cumulative = 6.95414e-07
DILUPBiCG:  Solving for epsilon, Initial residual = 0.113652, Final residual = 0.000303199, No Iterations 1
DILUPBiCG:  Solving for k, Initial residual = 0.135891, Final residual = 0.000370354, No Iterations 1
ExecutionTime = 507.66 s  ClockTime = 509 s

Time = 79

DILUPBiCG:  Solving for Ux, Initial residual = 0.0102593, Final residual = 0.000371442, No Iterations 1
DILUPBiCG:  Solving for Uy, Initial residual = 0.00691387, Final residual = 6.55406e-05, No Iterations 1
DILUPBiCG:  Solving for Uz, Initial residual = 0.00691387, Final residual = 6.55406e-05, No Iterations 1
DICPCG:  Solving for p, Initial residual = 0.0189429, Final residual = 0.000189092, No Iterations 53
time step continuity errors : sum local = 2.25913e-09, global = 3.46527e-10, cumulative = 6.9576e-07
DILUPBiCG:  Solving for epsilon, Initial residual = 0.111595, Final residual = 0.000297569, No Iterations 1
DILUPBiCG:  Solving for k, Initial residual = 0.134022, Final residual = 0.000365053, No Iterations 1
ExecutionTime = 511.3 s  ClockTime = 513 s

Time = 80

DILUPBiCG:  Solving for Ux, Initial residual = 0.010193, Final residual = 0.000364697, No Iterations 1
DILUPBiCG:  Solving for Uy, Initial residual = 0.006893, Final residual = 6.46206e-05, No Iterations 1
DILUPBiCG:  Solving for Uz, Initial residual = 0.006893, Final residual = 6.46206e-05, No Iterations 1
DICPCG:  Solving for p, Initial residual = 0.0185839, Final residual = 0.000185334, No Iterations 71
time step continuity errors : sum local = 2.19109e-09, global = 2.5257e-10, cumulative = 6.96013e-07
DILUPBiCG:  Solving for epsilon, Initial residual = 0.109584, Final residual = 0.000292076, No Iterations 1
DILUPBiCG:  Solving for k, Initial residual = 0.132186, Final residual = 0.00035986, No Iterations 1
ExecutionTime = 515.46 s  ClockTime = 517 s

Time = 81

DILUPBiCG:  Solving for Ux, Initial residual = 0.0101294, Final residual = 0.000358194, No Iterations 1
DILUPBiCG:  Solving for Uy, Initial residual = 0.00687233, Final residual = 6.37227e-05, No Iterations 1
DILUPBiCG:  Solving for Uz, Initial residual = 0.00687233, Final residual = 6.37228e-05, No Iterations 1
DICPCG:  Solving for p, Initial residual = 0.0182211, Final residual = 0.000181999, No Iterations 55
time step continuity errors : sum local = 2.12964e-09, global = 8.07397e-11, cumulative = 6.96093e-07
DILUPBiCG:  Solving for epsilon, Initial residual = 0.107618, Final residual = 0.000286717, No Iterations 1
DILUPBiCG:  Solving for k, Initial residual = 0.130382, Final residual = 0.000354773, No Iterations 1
ExecutionTime = 519.17 s  ClockTime = 521 s

Time = 82

DILUPBiCG:  Solving for Ux, Initial residual = 0.010069, Final residual = 0.000351906, No Iterations 1
DILUPBiCG:  Solving for Uy, Initial residual = 0.00685102, Final residual = 6.2843e-05, No Iterations 1
DILUPBiCG:  Solving for Uz, Initial residual = 0.00685102, Final residual = 6.2843e-05, No Iterations 1
DICPCG:  Solving for p, Initial residual = 0.0178993, Final residual = 0.000177426, No Iterations 15
time step continuity errors : sum local = 2.05459e-09, global = -3.41394e-10, cumulative = 6.95752e-07
DILUPBiCG:  Solving for epsilon, Initial residual = 0.105696, Final residual = 0.000281489, No Iterations 1
DILUPBiCG:  Solving for k, Initial residual = 0.128609, Final residual = 0.000349788, No Iterations 1
ExecutionTime = 521.87 s  ClockTime = 523 s

Time = 83

DILUPBiCG:  Solving for Ux, Initial residual = 0.0100112, Final residual = 0.000345821, No Iterations 1
DILUPBiCG:  Solving for Uy, Initial residual = 0.00683025, Final residual = 6.19991e-05, No Iterations 1
DILUPBiCG:  Solving for Uz, Initial residual = 0.00683026, Final residual = 6.19991e-05, No Iterations 1
DICPCG:  Solving for p, Initial residual = 0.0175853, Final residual = 0.000171233, No Iterations 128
time step continuity errors : sum local = 1.96314e-09, global = 3.45267e-11, cumulative = 6.95787e-07
DILUPBiCG:  Solving for epsilon, Initial residual = 0.103817, Final residual = 0.000276387, No Iterations 1
DILUPBiCG:  Solving for k, Initial residual = 0.126868, Final residual = 0.000344903, No Iterations 1
ExecutionTime = 527.31 s  ClockTime = 529 s

Time = 84

DILUPBiCG:  Solving for Ux, Initial residual = 0.00995049, Final residual = 0.000339782, No Iterations 1
DILUPBiCG:  Solving for Uy, Initial residual = 0.00681137, Final residual = 6.12097e-05, No Iterations 1
DILUPBiCG:  Solving for Uz, Initial residual = 0.00681137, Final residual = 6.12097e-05, No Iterations 1
DICPCG:  Solving for p, Initial residual = 0.0173559, Final residual = 0.000171802, No Iterations 35
time step continuity errors : sum local = 1.93807e-09, global = -3.56127e-10, cumulative = 6.9543e-07
DILUPBiCG:  Solving for epsilon, Initial residual = 0.10198, Final residual = 0.00027141, No Iterations 1
DILUPBiCG:  Solving for k, Initial residual = 0.125158, Final residual = 0.000340117, No Iterations 1
ExecutionTime = 530.5 s  ClockTime = 532 s

Time = 85

DILUPBiCG:  Solving for Ux, Initial residual = 0.00989262, Final residual = 0.00033396, No Iterations 1
DILUPBiCG:  Solving for Uy, Initial residual = 0.00679159, Final residual = 6.04118e-05, No Iterations 1
DILUPBiCG:  Solving for Uz, Initial residual = 0.00679159, Final residual = 6.04118e-05, No Iterations 1
DICPCG:  Solving for p, Initial residual = 0.0170961, Final residual = 0.000167477, No Iterations 38
time step continuity errors : sum local = 1.87059e-09, global = -1.30335e-10, cumulative = 6.953e-07
DILUPBiCG:  Solving for epsilon, Initial residual = 0.100184, Final residual = 0.000266553, No Iterations 1
DILUPBiCG:  Solving for k, Initial residual = 0.123479, Final residual = 0.000335428, No Iterations 1
ExecutionTime = 533.73 s  ClockTime = 535 s

Time = 86

DILUPBiCG:  Solving for Ux, Initial residual = 0.00983589, Final residual = 0.000328289, No Iterations 1
DILUPBiCG:  Solving for Uy, Initial residual = 0.00677251, Final residual = 5.9667e-05, No Iterations 1
DILUPBiCG:  Solving for Uz, Initial residual = 0.00677251, Final residual = 5.9667e-05, No Iterations 1
DICPCG:  Solving for p, Initial residual = 0.0167743, Final residual = 0.000162448, No Iterations 37
time step continuity errors : sum local = 1.79663e-09, global = -3.87246e-11, cumulative = 6.95261e-07
DILUPBiCG:  Solving for epsilon, Initial residual = 0.0984286, Final residual = 0.000261813, No Iterations 1
DILUPBiCG:  Solving for k, Initial residual = 0.121829, Final residual = 0.000330832, No Iterations 1
ExecutionTime = 536.97 s  ClockTime = 539 s

Time = 87

DILUPBiCG:  Solving for Ux, Initial residual = 0.00978101, Final residual = 0.000322782, No Iterations 1
DILUPBiCG:  Solving for Uy, Initial residual = 0.00675287, Final residual = 5.89272e-05, No Iterations 1
DILUPBiCG:  Solving for Uz, Initial residual = 0.00675287, Final residual = 5.89273e-05, No Iterations 1
DICPCG:  Solving for p, Initial residual = 0.0164846, Final residual = 0.000159988, No Iterations 42
time step continuity errors : sum local = 1.75243e-09, global = -3.91368e-11, cumulative = 6.95222e-07
DILUPBiCG:  Solving for epsilon, Initial residual = 0.0967123, Final residual = 0.000257185, No Iterations 1
DILUPBiCG:  Solving for k, Initial residual = 0.120209, Final residual = 0.000326325, No Iterations 1
ExecutionTime = 540.32 s  ClockTime = 542 s

Time = 88

DILUPBiCG:  Solving for Ux, Initial residual = 0.00972803, Final residual = 0.000317439, No Iterations 1
DILUPBiCG:  Solving for Uy, Initial residual = 0.00673419, Final residual = 5.82159e-05, No Iterations 1
DILUPBiCG:  Solving for Uz, Initial residual = 0.00673419, Final residual = 5.82159e-05, No Iterations 1
DICPCG:  Solving for p, Initial residual = 0.0161694, Final residual = 0.000157694, No Iterations 20
time step continuity errors : sum local = 1.71107e-09, global = -1.21511e-10, cumulative = 6.95101e-07
DILUPBiCG:  Solving for epsilon, Initial residual = 0.0950344, Final residual = 0.000252667, No Iterations 1
DILUPBiCG:  Solving for k, Initial residual = 0.118618, Final residual = 0.000321906, No Iterations 1
ExecutionTime = 543.21 s  ClockTime = 545 s

Time = 89

DILUPBiCG:  Solving for Ux, Initial residual = 0.00967595, Final residual = 0.000312217, No Iterations 1
DILUPBiCG:  Solving for Uy, Initial residual = 0.00671584, Final residual = 5.75291e-05, No Iterations 1
DILUPBiCG:  Solving for Uz, Initial residual = 0.00671584, Final residual = 5.75291e-05, No Iterations 1
DICPCG:  Solving for p, Initial residual = 0.0159216, Final residual = 0.000153338, No Iterations 70
time step continuity errors : sum local = 1.64873e-09, global = -5.57624e-11, cumulative = 6.95045e-07
DILUPBiCG:  Solving for epsilon, Initial residual = 0.0933939, Final residual = 0.000248254, No Iterations 1
DILUPBiCG:  Solving for k, Initial residual = 0.117055, Final residual = 0.000317572, No Iterations 1
ExecutionTime = 547.34 s  ClockTime = 549 s

Time = 90

DILUPBiCG:  Solving for Ux, Initial residual = 0.00962276, Final residual = 0.000307073, No Iterations 1
DILUPBiCG:  Solving for Uy, Initial residual = 0.00669772, Final residual = 5.6873e-05, No Iterations 1
DILUPBiCG:  Solving for Uz, Initial residual = 0.00669772, Final residual = 5.6873e-05, No Iterations 1
DICPCG:  Solving for p, Initial residual = 0.015632, Final residual = 0.000154997, No Iterations 87
time step continuity errors : sum local = 1.65088e-09, global = -2.07757e-10, cumulative = 6.94837e-07
DILUPBiCG:  Solving for epsilon, Initial residual = 0.0917901, Final residual = 0.000243944, No Iterations 1
DILUPBiCG:  Solving for k, Initial residual = 0.11552, Final residual = 0.000313322, No Iterations 1
ExecutionTime = 551.8 s  ClockTime = 553 s

Time = 91

DILUPBiCG:  Solving for Ux, Initial residual = 0.00957108, Final residual = 0.000302071, No Iterations 1
DILUPBiCG:  Solving for Uy, Initial residual = 0.00667996, Final residual = 5.6225e-05, No Iterations 1
DILUPBiCG:  Solving for Uz, Initial residual = 0.00667996, Final residual = 5.62251e-05, No Iterations 1
DICPCG:  Solving for p, Initial residual = 0.0154107, Final residual = 0.000152124, No Iterations 94
time step continuity errors : sum local = 1.60445e-09, global = -1.64166e-10, cumulative = 6.94673e-07
DILUPBiCG:  Solving for epsilon, Initial residual = 0.0902219, Final residual = 0.000239735, No Iterations 1
DILUPBiCG:  Solving for k, Initial residual = 0.114013, Final residual = 0.000309153, No Iterations 1
ExecutionTime = 556.47 s  ClockTime = 558 s

Time = 92

DILUPBiCG:  Solving for Ux, Initial residual = 0.00952161, Final residual = 0.000297219, No Iterations 1
DILUPBiCG:  Solving for Uy, Initial residual = 0.00666201, Final residual = 5.5596e-05, No Iterations 1
DILUPBiCG:  Solving for Uz, Initial residual = 0.00666201, Final residual = 5.5596e-05, No Iterations 1
DICPCG:  Solving for p, Initial residual = 0.0151763, Final residual = 0.000149193, No Iterations 19
time step continuity errors : sum local = 1.5573e-09, global = -4.78562e-10, cumulative = 6.94195e-07
DILUPBiCG:  Solving for epsilon, Initial residual = 0.0886887, Final residual = 0.000235624, No Iterations 1
DILUPBiCG:  Solving for k, Initial residual = 0.112533, Final residual = 0.000305065, No Iterations 1
ExecutionTime = 559.24 s  ClockTime = 561 s

Time = 93

DILUPBiCG:  Solving for Ux, Initial residual = 0.00947364, Final residual = 0.00029249, No Iterations 1
DILUPBiCG:  Solving for Uy, Initial residual = 0.0066443, Final residual = 5.49846e-05, No Iterations 1
DILUPBiCG:  Solving for Uz, Initial residual = 0.0066443, Final residual = 5.49847e-05, No Iterations 1
DICPCG:  Solving for p, Initial residual = 0.0149164, Final residual = 0.000146535, No Iterations 124
time step continuity errors : sum local = 1.51646e-09, global = 4.31713e-11, cumulative = 6.94238e-07
DILUPBiCG:  Solving for epsilon, Initial residual = 0.0871894, Final residual = 0.000231609, No Iterations 1
DILUPBiCG:  Solving for k, Initial residual = 0.111079, Final residual = 0.000301055, No Iterations 1
ExecutionTime = 564.56 s  ClockTime = 566 s

Time = 94

DILUPBiCG:  Solving for Ux, Initial residual = 0.00942479, Final residual = 0.000287824, No Iterations 1
DILUPBiCG:  Solving for Uy, Initial residual = 0.00662752, Final residual = 5.44086e-05, No Iterations 1
DILUPBiCG:  Solving for Uz, Initial residual = 0.00662752, Final residual = 5.44086e-05, No Iterations 1
DICPCG:  Solving for p, Initial residual = 0.0147177, Final residual = 0.000145527, No Iterations 33
time step continuity errors : sum local = 1.4888e-09, global = -1.20411e-10, cumulative = 6.94117e-07
DILUPBiCG:  Solving for epsilon, Initial residual = 0.0857233, Final residual = 0.000227688, No Iterations 1
DILUPBiCG:  Solving for k, Initial residual = 0.109652, Final residual = 0.000297122, No Iterations 1
ExecutionTime = 567.69 s  ClockTime = 569 s

Time = 95

DILUPBiCG:  Solving for Ux, Initial residual = 0.00937774, Final residual = 0.000283286, No Iterations 1
DILUPBiCG:  Solving for Uy, Initial residual = 0.00660979, Final residual = 5.38169e-05, No Iterations 1
DILUPBiCG:  Solving for Uz, Initial residual = 0.00660979, Final residual = 5.38169e-05, No Iterations 1
DICPCG:  Solving for p, Initial residual = 0.0144929, Final residual = 0.000143773, No Iterations 73
time step continuity errors : sum local = 1.45859e-09, global = 9.12653e-11, cumulative = 6.94209e-07
DILUPBiCG:  Solving for epsilon, Initial residual = 0.0842895, Final residual = 0.000223856, No Iterations 1
DILUPBiCG:  Solving for k, Initial residual = 0.108249, Final residual = 0.000293265, No Iterations 1
ExecutionTime = 571.73 s  ClockTime = 573 s

Time = 96

DILUPBiCG:  Solving for Ux, Initial residual = 0.00933094, Final residual = 0.000278837, No Iterations 1
DILUPBiCG:  Solving for Uy, Initial residual = 0.00659328, Final residual = 5.32714e-05, No Iterations 1
DILUPBiCG:  Solving for Uz, Initial residual = 0.00659329, Final residual = 5.32715e-05, No Iterations 1
DICPCG:  Solving for p, Initial residual = 0.0142559, Final residual = 0.000137182, No Iterations 31
time step continuity errors : sum local = 1.38053e-09, global = 1.73638e-10, cumulative = 6.94382e-07
DILUPBiCG:  Solving for epsilon, Initial residual = 0.0828874, Final residual = 0.000220113, No Iterations 1
DILUPBiCG:  Solving for k, Initial residual = 0.106872, Final residual = 0.000289482, No Iterations 1
ExecutionTime = 574.72 s  ClockTime = 576 s

Time = 97

DILUPBiCG:  Solving for Ux, Initial residual = 0.00928611, Final residual = 0.00027452, No Iterations 1
DILUPBiCG:  Solving for Uy, Initial residual = 0.00657671, Final residual = 5.27243e-05, No Iterations 1
DILUPBiCG:  Solving for Uz, Initial residual = 0.00657672, Final residual = 5.27243e-05, No Iterations 1
DICPCG:  Solving for p, Initial residual = 0.0140024, Final residual = 0.000139743, No Iterations 14
time step continuity errors : sum local = 1.39507e-09, global = -1.38695e-12, cumulative = 6.94381e-07
DILUPBiCG:  Solving for epsilon, Initial residual = 0.0815161, Final residual = 0.000216456, No Iterations 1
DILUPBiCG:  Solving for k, Initial residual = 0.10552, Final residual = 0.00028577, No Iterations 1
ExecutionTime = 577.45 s  ClockTime = 579 s

Time = 98

DILUPBiCG:  Solving for Ux, Initial residual = 0.00924276, Final residual = 0.000270293, No Iterations 1
DILUPBiCG:  Solving for Uy, Initial residual = 0.00656012, Final residual = 5.22001e-05, No Iterations 1
DILUPBiCG:  Solving for Uz, Initial residual = 0.00656012, Final residual = 5.22001e-05, No Iterations 1
DICPCG:  Solving for p, Initial residual = 0.0137814, Final residual = 0.000136878, No Iterations 42
time step continuity errors : sum local = 1.35572e-09, global = 2.97273e-12, cumulative = 6.94384e-07
DILUPBiCG:  Solving for epsilon, Initial residual = 0.0801748, Final residual = 0.000212881, No Iterations 1
DILUPBiCG:  Solving for k, Initial residual = 0.104192, Final residual = 0.000282129, No Iterations 1
ExecutionTime = 580.76 s  ClockTime = 582 s

Time = 99

DILUPBiCG:  Solving for Ux, Initial residual = 0.0091986, Final residual = 0.000266121, No Iterations 1
DILUPBiCG:  Solving for Uy, Initial residual = 0.00654412, Final residual = 5.16941e-05, No Iterations 1
DILUPBiCG:  Solving for Uz, Initial residual = 0.00654412, Final residual = 5.16941e-05, No Iterations 1
DICPCG:  Solving for p, Initial residual = 0.0135675, Final residual = 0.00013505, No Iterations 70
time step continuity errors : sum local = 1.32708e-09, global = -9.77635e-11, cumulative = 6.94286e-07
DILUPBiCG:  Solving for epsilon, Initial residual = 0.0788628, Final residual = 0.000209388, No Iterations 1
DILUPBiCG:  Solving for k, Initial residual = 0.102887, Final residual = 0.000278556, No Iterations 1
ExecutionTime = 584.75 s  ClockTime = 586 s

Time = 100

DILUPBiCG:  Solving for Ux, Initial residual = 0.00915489, Final residual = 0.000262036, No Iterations 1
DILUPBiCG:  Solving for Uy, Initial residual = 0.00652776, Final residual = 5.11981e-05, No Iterations 1
DILUPBiCG:  Solving for Uz, Initial residual = 0.00652777, Final residual = 5.11981e-05, No Iterations 1
DICPCG:  Solving for p, Initial residual = 0.0133692, Final residual = 0.000127733, No Iterations 21
[...]
DILUPBiCG:  Solving for k, Initial residual = 0.003382, Final residual = 9.6659e-06, No Iterations 1
ExecutionTime = 3564.28 s  ClockTime = 3574 s

Time = 976

DILUPBiCG:  Solving for Ux, Initial residual = 0.0060981, Final residual = 2.48031e-05, No Iterations 1
DILUPBiCG:  Solving for Uy, Initial residual = 0.000384249, Final residual = 2.14009e-06, No Iterations 2
DILUPBiCG:  Solving for Uz, Initial residual = 0.000384249, Final residual = 2.14009e-06, No Iterations 2
DICPCG:  Solving for p, Initial residual = 0.0016146, Final residual = 1.51553e-05, No Iterations 12
time step continuity errors : sum local = 1.79865e-10, global = 5.88071e-11, cumulative = 6.96113e-07
DILUPBiCG:  Solving for epsilon, Initial residual = 0.000849502, Final residual = 2.55296e-06, No Iterations 1
DILUPBiCG:  Solving for k, Initial residual = 0.00337654, Final residual = 9.65058e-06, No Iterations 1
ExecutionTime = 3566.93 s  ClockTime = 3576 s

Time = 977

DILUPBiCG:  Solving for Ux, Initial residual = 0.00609837, Final residual = 2.48071e-05, No Iterations 1
DILUPBiCG:  Solving for Uy, Initial residual = 0.00038425, Final residual = 2.14578e-06, No Iterations 2
DILUPBiCG:  Solving for Uz, Initial residual = 0.00038425, Final residual = 2.14578e-06, No Iterations 2
DICPCG:  Solving for p, Initial residual = 0.00161288, Final residual = 1.42133e-05, No Iterations 95
time step continuity errors : sum local = 1.68753e-10, global = 5.57992e-13, cumulative = 6.96113e-07
DILUPBiCG:  Solving for epsilon, Initial residual = 0.000847663, Final residual = 2.54773e-06, No Iterations 1
DILUPBiCG:  Solving for k, Initial residual = 0.00337109, Final residual = 9.63531e-06, No Iterations 1
ExecutionTime = 3571.45 s  ClockTime = 3581 s

Time = 978

DILUPBiCG:  Solving for Ux, Initial residual = 0.00609864, Final residual = 2.47808e-05, No Iterations 1
DILUPBiCG:  Solving for Uy, Initial residual = 0.000386152, Final residual = 2.14582e-06, No Iterations 2
DILUPBiCG:  Solving for Uz, Initial residual = 0.000386152, Final residual = 2.14582e-06, No Iterations 2
DICPCG:  Solving for p, Initial residual = 0.00160626, Final residual = 1.15213e-05, No Iterations 12
time step continuity errors : sum local = 1.36961e-10, global = 1.46469e-11, cumulative = 6.96128e-07
DILUPBiCG:  Solving for epsilon, Initial residual = 0.00084583, Final residual = 2.54252e-06, No Iterations 1
DILUPBiCG:  Solving for k, Initial residual = 0.00336566, Final residual = 9.62007e-06, No Iterations 1
ExecutionTime = 3574.07 s  ClockTime = 3583 s

Time = 979

DILUPBiCG:  Solving for Ux, Initial residual = 0.00609893, Final residual = 2.47931e-05, No Iterations 1
DILUPBiCG:  Solving for Uy, Initial residual = 0.000383423, Final residual = 2.1382e-06, No Iterations 2
DILUPBiCG:  Solving for Uz, Initial residual = 0.000383423, Final residual = 2.1382e-06, No Iterations 2
DICPCG:  Solving for p, Initial residual = 0.00160635, Final residual = 1.52058e-05, No Iterations 35
time step continuity errors : sum local = 1.80832e-10, global = -2.68503e-11, cumulative = 6.96101e-07
DILUPBiCG:  Solving for epsilon, Initial residual = 0.000844002, Final residual = 2.53733e-06, No Iterations 1
DILUPBiCG:  Solving for k, Initial residual = 0.00336025, Final residual = 9.60488e-06, No Iterations 1
ExecutionTime = 3577.2 s  ClockTime = 3587 s

Time = 980

DILUPBiCG:  Solving for Ux, Initial residual = 0.0060992, Final residual = 2.4791e-05, No Iterations 1
DILUPBiCG:  Solving for Uy, Initial residual = 0.000382587, Final residual = 2.12957e-06, No Iterations 2
DILUPBiCG:  Solving for Uz, Initial residual = 0.000382587, Final residual = 2.12957e-06, No Iterations 2
DICPCG:  Solving for p, Initial residual = 0.00160244, Final residual = 1.32925e-05, No Iterations 12
time step continuity errors : sum local = 1.58136e-10, global = -7.79482e-11, cumulative = 6.96023e-07
DILUPBiCG:  Solving for epsilon, Initial residual = 0.000842181, Final residual = 2.53215e-06, No Iterations 1
DILUPBiCG:  Solving for k, Initial residual = 0.00335485, Final residual = 9.58973e-06, No Iterations 1
ExecutionTime = 3579.83 s  ClockTime = 3589 s

Time = 981

DILUPBiCG:  Solving for Ux, Initial residual = 0.00609947, Final residual = 2.47892e-05, No Iterations 1
DILUPBiCG:  Solving for Uy, Initial residual = 0.000379889, Final residual = 2.13233e-06, No Iterations 2
DILUPBiCG:  Solving for Uz, Initial residual = 0.000379889, Final residual = 2.13233e-06, No Iterations 2
DICPCG:  Solving for p, Initial residual = 0.0016017, Final residual = 1.52052e-05, No Iterations 83
time step continuity errors : sum local = 1.80961e-10, global = -1.09689e-11, cumulative = 6.96012e-07
DILUPBiCG:  Solving for epsilon, Initial residual = 0.000840365, Final residual = 2.52698e-06, No Iterations 1
DILUPBiCG:  Solving for k, Initial residual = 0.00334946, Final residual = 9.57461e-06, No Iterations 1
ExecutionTime = 3584.06 s  ClockTime = 3593 s

Time = 982

DILUPBiCG:  Solving for Ux, Initial residual = 0.00609976, Final residual = 2.4823e-05, No Iterations 1
DILUPBiCG:  Solving for Uy, Initial residual = 0.000381359, Final residual = 2.13077e-06, No Iterations 2
DILUPBiCG:  Solving for Uz, Initial residual = 0.00038136, Final residual = 2.13077e-06, No Iterations 2
DICPCG:  Solving for p, Initial residual = 0.00159971, Final residual = 1.15566e-05, No Iterations 12
time step continuity errors : sum local = 1.37483e-10, global = -1.11771e-11, cumulative = 6.96001e-07
DILUPBiCG:  Solving for epsilon, Initial residual = 0.000838554, Final residual = 2.52184e-06, No Iterations 1
DILUPBiCG:  Solving for k, Initial residual = 0.00334408, Final residual = 9.55954e-06, No Iterations 1
ExecutionTime = 3586.68 s  ClockTime = 3596 s

Time = 983

DILUPBiCG:  Solving for Ux, Initial residual = 0.00610003, Final residual = 2.48173e-05, No Iterations 1
DILUPBiCG:  Solving for Uy, Initial residual = 0.000377796, Final residual = 2.1238e-06, No Iterations 2
DILUPBiCG:  Solving for Uz, Initial residual = 0.000377796, Final residual = 2.1238e-06, No Iterations 2
DICPCG:  Solving for p, Initial residual = 0.00160019, Final residual = 1.50783e-05, No Iterations 97
time step continuity errors : sum local = 1.7945e-10, global = -5.71765e-12, cumulative = 6.95995e-07
DILUPBiCG:  Solving for epsilon, Initial residual = 0.00083675, Final residual = 2.51671e-06, No Iterations 1
DILUPBiCG:  Solving for k, Initial residual = 0.00333873, Final residual = 9.5445e-06, No Iterations 1
ExecutionTime = 3591.2 s  ClockTime = 3601 s

Time = 984

DILUPBiCG:  Solving for Ux, Initial residual = 0.0061003, Final residual = 2.48115e-05, No Iterations 1
DILUPBiCG:  Solving for Uy, Initial residual = 0.000379169, Final residual = 2.12229e-06, No Iterations 2
DILUPBiCG:  Solving for Uz, Initial residual = 0.000379169, Final residual = 2.12229e-06, No Iterations 2
DICPCG:  Solving for p, Initial residual = 0.00159527, Final residual = 1.42113e-05, No Iterations 12
time step continuity errors : sum local = 1.69276e-10, global = 4.89148e-11, cumulative = 6.96044e-07
DILUPBiCG:  Solving for epsilon, Initial residual = 0.000834951, Final residual = 2.51159e-06, No Iterations 1
DILUPBiCG:  Solving for k, Initial residual = 0.00333338, Final residual = 9.52951e-06, No Iterations 1
ExecutionTime = 3593.83 s  ClockTime = 3603 s

Time = 985

DILUPBiCG:  Solving for Ux, Initial residual = 0.00610057, Final residual = 2.48221e-05, No Iterations 1
DILUPBiCG:  Solving for Uy, Initial residual = 0.000377393, Final residual = 2.12258e-06, No Iterations 2
DILUPBiCG:  Solving for Uz, Initial residual = 0.000377393, Final residual = 2.12258e-06, No Iterations 2
DICPCG:  Solving for p, Initial residual = 0.00159562, Final residual = 1.59217e-05, No Iterations 88
time step continuity errors : sum local = 1.89723e-10, global = -2.05003e-12, cumulative = 6.96042e-07
DILUPBiCG:  Solving for epsilon, Initial residual = 0.000833157, Final residual = 2.5065e-06, No Iterations 1
DILUPBiCG:  Solving for k, Initial residual = 0.00332805, Final residual = 9.51456e-06, No Iterations 1
ExecutionTime = 3598.22 s  ClockTime = 3608 s

Time = 986

DILUPBiCG:  Solving for Ux, Initial residual = 0.00610084, Final residual = 2.47998e-05, No Iterations 1
DILUPBiCG:  Solving for Uy, Initial residual = 0.000376105, Final residual = 2.11266e-06, No Iterations 2
DILUPBiCG:  Solving for Uz, Initial residual = 0.000376105, Final residual = 2.11266e-06, No Iterations 2
DICPCG:  Solving for p, Initial residual = 0.00159025, Final residual = 1.51603e-05, No Iterations 10
time step continuity errors : sum local = 1.80807e-10, global = -1.37935e-11, cumulative = 6.96028e-07
DILUPBiCG:  Solving for epsilon, Initial residual = 0.00083137, Final residual = 2.50141e-06, No Iterations 1
DILUPBiCG:  Solving for k, Initial residual = 0.00332273, Final residual = 9.49964e-06, No Iterations 1
ExecutionTime = 3600.8 s  ClockTime = 3610 s

Time = 987

DILUPBiCG:  Solving for Ux, Initial residual = 0.00610111, Final residual = 2.48066e-05, No Iterations 1
DILUPBiCG:  Solving for Uy, Initial residual = 0.000375285, Final residual = 2.10702e-06, No Iterations 2
DILUPBiCG:  Solving for Uz, Initial residual = 0.000375285, Final residual = 2.10702e-06, No Iterations 2
DICPCG:  Solving for p, Initial residual = 0.0015896, Final residual = 1.37163e-05, No Iterations 12
time step continuity errors : sum local = 1.63649e-10, global = -5.84216e-11, cumulative = 6.9597e-07
DILUPBiCG:  Solving for epsilon, Initial residual = 0.000829588, Final residual = 2.49635e-06, No Iterations 1
DILUPBiCG:  Solving for k, Initial residual = 0.00331743, Final residual = 9.48476e-06, No Iterations 1
ExecutionTime = 3603.5 s  ClockTime = 3613 s

Time = 988

DILUPBiCG:  Solving for Ux, Initial residual = 0.00610139, Final residual = 2.48047e-05, No Iterations 1
DILUPBiCG:  Solving for Uy, Initial residual = 0.000375664, Final residual = 2.11795e-06, No Iterations 2
DILUPBiCG:  Solving for Uz, Initial residual = 0.000375664, Final residual = 2.11795e-06, No Iterations 2
DICPCG:  Solving for p, Initial residual = 0.00158706, Final residual = 1.54647e-05, No Iterations 109
time step continuity errors : sum local = 1.8458e-10, global = -2.13489e-12, cumulative = 6.95968e-07
DILUPBiCG:  Solving for epsilon, Initial residual = 0.000827811, Final residual = 2.49129e-06, No Iterations 1
DILUPBiCG:  Solving for k, Initial residual = 0.00331214, Final residual = 9.46992e-06, No Iterations 1
ExecutionTime = 3608.26 s  ClockTime = 3618 s

Time = 989

DILUPBiCG:  Solving for Ux, Initial residual = 0.00610167, Final residual = 2.48414e-05, No Iterations 1
DILUPBiCG:  Solving for Uy, Initial residual = 0.000376458, Final residual = 2.11846e-06, No Iterations 2
DILUPBiCG:  Solving for Uz, Initial residual = 0.000376458, Final residual = 2.11846e-06, No Iterations 2
DICPCG:  Solving for p, Initial residual = 0.00158628, Final residual = 1.12265e-05, No Iterations 12
time step continuity errors : sum local = 1.33958e-10, global = -1.39715e-11, cumulative = 6.95954e-07
DILUPBiCG:  Solving for epsilon, Initial residual = 0.00082604, Final residual = 2.48626e-06, No Iterations 1
DILUPBiCG:  Solving for k, Initial residual = 0.00330686, Final residual = 9.45512e-06, No Iterations 1
ExecutionTime = 3610.94 s  ClockTime = 3620 s

Time = 990

DILUPBiCG:  Solving for Ux, Initial residual = 0.00610193, Final residual = 2.483e-05, No Iterations 1
DILUPBiCG:  Solving for Uy, Initial residual = 0.000374067, Final residual = 2.11002e-06, No Iterations 2
DILUPBiCG:  Solving for Uz, Initial residual = 0.000374067, Final residual = 2.11002e-06, No Iterations 2
DICPCG:  Solving for p, Initial residual = 0.00158657, Final residual = 1.57805e-05, No Iterations 65
time step continuity errors : sum local = 1.8837e-10, global = 2.45728e-11, cumulative = 6.95978e-07
DILUPBiCG:  Solving for epsilon, Initial residual = 0.000824275, Final residual = 2.48124e-06, No Iterations 1
DILUPBiCG:  Solving for k, Initial residual = 0.0033016, Final residual = 9.44035e-06, No Iterations 1
ExecutionTime = 3614.74 s  ClockTime = 3624 s

Time = 991

DILUPBiCG:  Solving for Ux, Initial residual = 0.00610219, Final residual = 2.48309e-05, No Iterations 1
DILUPBiCG:  Solving for Uy, Initial residual = 0.000374619, Final residual = 2.10735e-06, No Iterations 2
DILUPBiCG:  Solving for Uz, Initial residual = 0.000374619, Final residual = 2.10735e-06, No Iterations 2
DICPCG:  Solving for p, Initial residual = 0.00158331, Final residual = 1.48293e-05, No Iterations 12
time step continuity errors : sum local = 1.77099e-10, global = 7.24877e-11, cumulative = 6.96051e-07
DILUPBiCG:  Solving for epsilon, Initial residual = 0.000822515, Final residual = 2.47623e-06, No Iterations 1
DILUPBiCG:  Solving for k, Initial residual = 0.00329635, Final residual = 9.42563e-06, No Iterations 1
ExecutionTime = 3617.42 s  ClockTime = 3627 s

Time = 992

DILUPBiCG:  Solving for Ux, Initial residual = 0.00610247, Final residual = 2.48404e-05, No Iterations 1
DILUPBiCG:  Solving for Uy, Initial residual = 0.00037243, Final residual = 2.10658e-06, No Iterations 2
DILUPBiCG:  Solving for Uz, Initial residual = 0.00037243, Final residual = 2.10658e-06, No Iterations 2
DICPCG:  Solving for p, Initial residual = 0.00158252, Final residual = 1.42152e-05, No Iterations 77
time step continuity errors : sum local = 1.6983e-10, global = -4.46703e-12, cumulative = 6.96046e-07
DILUPBiCG:  Solving for epsilon, Initial residual = 0.00082076, Final residual = 2.47124e-06, No Iterations 1
DILUPBiCG:  Solving for k, Initial residual = 0.00329111, Final residual = 9.41094e-06, No Iterations 1
ExecutionTime = 3621.48 s  ClockTime = 3631 s

Time = 993

DILUPBiCG:  Solving for Ux, Initial residual = 0.00610272, Final residual = 2.48108e-05, No Iterations 1
DILUPBiCG:  Solving for Uy, Initial residual = 0.000372168, Final residual = 2.09979e-06, No Iterations 2
DILUPBiCG:  Solving for Uz, Initial residual = 0.000372168, Final residual = 2.09979e-06, No Iterations 2
DICPCG:  Solving for p, Initial residual = 0.00157348, Final residual = 1.38249e-05, No Iterations 11
time step continuity errors : sum local = 1.65361e-10, global = -2.09743e-12, cumulative = 6.96044e-07
DILUPBiCG:  Solving for epsilon, Initial residual = 0.000819011, Final residual = 2.46627e-06, No Iterations 1
DILUPBiCG:  Solving for k, Initial residual = 0.00328589, Final residual = 9.39629e-06, No Iterations 1
ExecutionTime = 3624.09 s  ClockTime = 3634 s

Time = 994

DILUPBiCG:  Solving for Ux, Initial residual = 0.006103, Final residual = 2.48192e-05, No Iterations 1
DILUPBiCG:  Solving for Uy, Initial residual = 0.000370849, Final residual = 2.09703e-06, No Iterations 2
DILUPBiCG:  Solving for Uz, Initial residual = 0.000370849, Final residual = 2.09703e-06, No Iterations 2
DICPCG:  Solving for p, Initial residual = 0.00157378, Final residual = 1.569e-05, No Iterations 75
time step continuity errors : sum local = 1.87741e-10, global = -2.43595e-11, cumulative = 6.9602e-07
DILUPBiCG:  Solving for epsilon, Initial residual = 0.000817267, Final residual = 2.46131e-06, No Iterations 1
DILUPBiCG:  Solving for k, Initial residual = 0.00328068, Final residual = 9.38168e-06, No Iterations 1
ExecutionTime = 3628.21 s  ClockTime = 3638 s

Time = 995

DILUPBiCG:  Solving for Ux, Initial residual = 0.00610327, Final residual = 2.48268e-05, No Iterations 1
DILUPBiCG:  Solving for Uy, Initial residual = 0.000374706, Final residual = 2.11352e-06, No Iterations 2
DILUPBiCG:  Solving for Uz, Initial residual = 0.000374706, Final residual = 2.11352e-06, No Iterations 2
DICPCG:  Solving for p, Initial residual = 0.00157172, Final residual = 1.42806e-05, No Iterations 12
time step continuity errors : sum local = 1.7091e-10, global = -7.74499e-11, cumulative = 6.95942e-07
DILUPBiCG:  Solving for epsilon, Initial residual = 0.000815529, Final residual = 2.45637e-06, No Iterations 1
DILUPBiCG:  Solving for k, Initial residual = 0.00327549, Final residual = 9.3671e-06, No Iterations 1
ExecutionTime = 3630.8 s  ClockTime = 3640 s

Time = 996

DILUPBiCG:  Solving for Ux, Initial residual = 0.00610353, Final residual = 2.4825e-05, No Iterations 1
DILUPBiCG:  Solving for Uy, Initial residual = 0.000371929, Final residual = 2.11059e-06, No Iterations 2
DILUPBiCG:  Solving for Uz, Initial residual = 0.000371929, Final residual = 2.11059e-06, No Iterations 2
DICPCG:  Solving for p, Initial residual = 0.0015712, Final residual = 1.56501e-05, No Iterations 119
time step continuity errors : sum local = 1.8737e-10, global = -6.843e-12, cumulative = 6.95936e-07
DILUPBiCG:  Solving for epsilon, Initial residual = 0.000813796, Final residual = 2.45143e-06, No Iterations 1
DILUPBiCG:  Solving for k, Initial residual = 0.00327031, Final residual = 9.35256e-06, No Iterations 1
ExecutionTime = 3635.9 s  ClockTime = 3645 s

Time = 997

DILUPBiCG:  Solving for Ux, Initial residual = 0.00610381, Final residual = 2.48608e-05, No Iterations 1
DILUPBiCG:  Solving for Uy, Initial residual = 0.000373268, Final residual = 2.10698e-06, No Iterations 2
DILUPBiCG:  Solving for Uz, Initial residual = 0.000373268, Final residual = 2.10698e-06, No Iterations 2
DICPCG:  Solving for p, Initial residual = 0.00156885, Final residual = 1.51829e-05, No Iterations 10
time step continuity errors : sum local = 1.81707e-10, global = 2.51879e-12, cumulative = 6.95938e-07
DILUPBiCG:  Solving for epsilon, Initial residual = 0.000812069, Final residual = 2.44652e-06, No Iterations 1
DILUPBiCG:  Solving for k, Initial residual = 0.00326514, Final residual = 9.33806e-06, No Iterations 1
ExecutionTime = 3638.46 s  ClockTime = 3648 s

Time = 998

DILUPBiCG:  Solving for Ux, Initial residual = 0.00610407, Final residual = 2.48513e-05, No Iterations 1
DILUPBiCG:  Solving for Uy, Initial residual = 0.000371291, Final residual = 2.09482e-06, No Iterations 2
DILUPBiCG:  Solving for Uz, Initial residual = 0.000371291, Final residual = 2.09482e-06, No Iterations 2
DICPCG:  Solving for p, Initial residual = 0.00157062, Final residual = 1.45022e-05, No Iterations 116
time step continuity errors : sum local = 1.73627e-10, global = 2.50778e-12, cumulative = 6.95941e-07
DILUPBiCG:  Solving for epsilon, Initial residual = 0.000810347, Final residual = 2.44163e-06, No Iterations 1
DILUPBiCG:  Solving for k, Initial residual = 0.00325998, Final residual = 9.32359e-06, No Iterations 1
ExecutionTime = 3643.54 s  ClockTime = 3653 s

Time = 999

DILUPBiCG:  Solving for Ux, Initial residual = 0.00610432, Final residual = 2.48377e-05, No Iterations 1
DILUPBiCG:  Solving for Uy, Initial residual = 0.000367676, Final residual = 2.08495e-06, No Iterations 2
DILUPBiCG:  Solving for Uz, Initial residual = 0.000367676, Final residual = 2.08495e-06, No Iterations 2
DICPCG:  Solving for p, Initial residual = 0.00156591, Final residual = 1.18228e-05, No Iterations 12
time step continuity errors : sum local = 1.41675e-10, global = 5.56518e-11, cumulative = 6.95996e-07
DILUPBiCG:  Solving for epsilon, Initial residual = 0.00080863, Final residual = 2.43674e-06, No Iterations 1
DILUPBiCG:  Solving for k, Initial residual = 0.00325484, Final residual = 9.30916e-06, No Iterations 1
ExecutionTime = 3646.2 s  ClockTime = 3656 s

Time = 1000

DILUPBiCG:  Solving for Ux, Initial residual = 0.0061046, Final residual = 2.48532e-05, No Iterations 1
DILUPBiCG:  Solving for Uy, Initial residual = 0.000366954, Final residual = 2.09506e-06, No Iterations 2
DILUPBiCG:  Solving for Uz, Initial residual = 0.000366954, Final residual = 2.09506e-06, No Iterations 2
DICPCG:  Solving for p, Initial residual = 0.00156223, Final residual = 1.46944e-05, No Iterations 12
time step continuity errors : sum local = 1.76153e-10, global = 6.2554e-11, cumulative = 6.96059e-07
DILUPBiCG:  Solving for epsilon, Initial residual = 0.000806919, Final residual = 2.43187e-06, No Iterations 1
DILUPBiCG:  Solving for k, Initial residual = 0.00324971, Final residual = 9.29477e-06, No Iterations 1
ExecutionTime = 3651.69 s  ClockTime = 3661 s

End

